#       Name:                07O
#       Creating user name   gbret
#       Creation time:       Thu Sep  8 18:37:58 2016


#       File generated by GOLD software.
#

@<TRIPOS>MOLECULE
07O
    32    32     1
SMALL
NO_CHARGES


@<TRIPOS>ATOM
      1 C1          -1.1079   1.9152   1.2951 C.3            1 <1>                0.0000
      2 C2          -1.0871   0.3853   1.2867 C.3            1 <1>                0.0000
      3 C3          -0.3818  -0.1007   0.0468 C.2            1 <1>                0.0000
      4 O4           0.6151  -0.7853   0.1450 O.2            1 <1>                0.0000
      5 S5          -0.9870   0.3133  -1.5002 S.3            1 <1>                0.0000
      6 C6           0.2291  -0.5233  -2.5477 C.3            1 <1>                0.0000
      7 C7          -0.1170  -0.2874  -4.0192 C.3            1 <1>                0.0000
      8 N8           0.0190   1.1417  -4.3311 N.4            1 <1>                0.0000
      9 H9           0.9688   1.4349  -4.1578 H              1 <1>                0.0000
     10 H10         -0.2092   1.2973  -5.3016 H              1 <1>                0.0000
     11 H11         -0.6091   1.6744  -3.7483 H              1 <1>                0.0000
     12 C12          0.8211  -1.0830  -4.8897 C.2            1 <1>                0.0000
     13 O13          0.5321  -2.2218  -5.2157 O.co2          1 <1>                0.0000
     14 O14          1.8691  -0.5880  -5.2681 O.co2          1 <1>                0.0000
     15 C15         -0.3583  -0.1139   2.5076 C.ar           1 <1>                0.0000
     16 C16          0.9609   0.2415   2.7185 C.ar           1 <1>                0.0000
     17 C17          1.6295  -0.2164   3.8384 C.ar           1 <1>                0.0000
     18 C18          0.9788  -1.0294   4.7477 C.ar           1 <1>                0.0000
     19 C19         -0.3406  -1.3840   4.5372 C.ar           1 <1>                0.0000
     20 C20         -1.0105  -0.9226   3.4195 C.ar           1 <1>                0.0000
     21 H21         -0.0853   2.2925   1.2874 H              1 <1>                0.0000
     22 H22         -1.6351   2.2762   0.4121 H              1 <1>                0.0000
     23 H23         -1.6181   2.2667   2.1919 H              1 <1>                0.0000
     24 H24         -2.1097   0.0080   1.2945 H              1 <1>                0.0000
     25 H25          1.2225  -0.1257  -2.3398 H              1 <1>                0.0000
     26 H26          0.2146  -1.5929  -2.3380 H              1 <1>                0.0000
     27 H27         -1.1430  -0.6041  -4.2064 H              1 <1>                0.0000
     28 H28          1.4692   0.8766   2.0082 H              1 <1>                0.0000
     29 H29          2.6603   0.0606   4.0029 H              1 <1>                0.0000
     30 H30          1.5013  -1.3877   5.6222 H              1 <1>                0.0000
     31 H31         -0.8489  -2.0194   5.2474 H              1 <1>                0.0000
     32 H32         -2.0413  -1.1996   3.2550 H              1 <1>                0.0000
@<TRIPOS>BOND
    1    1    2 1     
    2    1   21 1     
    3    1   22 1     
    4    1   23 1     
    5    2    3 1     
    6    2   15 1     
    7    2   24 1     
    8    3    4 2     
    9    3    5 1     
   10    5    6 1     
   11    6    7 1     
   12    6   25 1     
   13    6   26 1     
   14    7    8 1     
   15    7   12 1     
   16    7   27 1     
   17    8    9 1     
   18    8   10 1     
   19    8   11 1     
   20   12   13 ar    
   21   12   14 ar    
   22   15   20 ar    
   23   15   16 ar    
   24   16   17 ar    
   25   16   28 1     
   26   17   18 ar    
   27   17   29 1     
   28   18   19 ar    
   29   18   30 1     
   30   19   20 ar    
   31   19   31 1     
   32   20   32 1     
@<TRIPOS>SUBSTRUCTURE
      1 ****           1
@<TRIPOS>SET
DONOR_HYDROGENS      STATIC     ATOMS    <user>   **** ""
3 9 10 11
ATOM$RED        STATIC     ATOMS    COLORGROUP SYSTEM
3 9 10 11
