#       Name:                07U
#       Creating user name   gbret
#       Creation time:       Thu Sep  8 18:38:28 2016


#       File generated by GOLD software.
#

@<TRIPOS>MOLECULE
07U
    42    44     1
SMALL
NO_CHARGES


@<TRIPOS>ATOM
      1 C1          -1.0018   2.2017   3.2089 C.3            1 <1>                0.0000
      2 C2          -0.9810   0.6718   3.2005 C.3            1 <1>                0.0000
      3 C3          -0.2410   0.1650   4.4400 C.3            1 <1>                0.0000
      4 N4          -2.3592   0.1634   3.2109 N.4            1 <1>                0.0000
      5 H5          -2.8472   0.4976   2.3935 H              1 <1>                0.0000
      6 H6          -2.3455  -0.8455   3.2054 H              1 <1>                0.0000
      7 H7          -2.8315   0.4888   4.0411 H              1 <1>                0.0000
      8 C8          -0.2649   0.1784   1.9417 C.3            1 <1>                0.0000
      9 N9          -0.9734   0.6637   0.7548 N.pl3          1 <1>                0.0000
     10 C10         -0.5080   0.3425  -0.5087 C.ar           1 <1>                0.0000
     11 N11          0.5693  -0.4043  -0.6457 N.ar           1 <1>                0.0000
     12 C12          1.0611  -0.7438  -1.8389 C.ar           1 <1>                0.0000
     13 C13          0.4646  -0.3282  -3.0150 C.ar           1 <1>                0.0000
     14 C14         -0.6880   0.4708  -2.9381 C.ar           1 <1>                0.0000
     15 C15         -1.3645   0.9416  -4.0729 C.ar           1 <1>                0.0000
     16 N16         -2.4376   1.6855  -3.9291 N.ar           1 <1>                0.0000
     17 C17         -2.9234   2.0204  -2.7428 C.ar           1 <1>                0.0000
     18 C18         -2.3366   1.6117  -1.5805 C.ar           1 <1>                0.0000
     19 C19         -1.1897   0.8094  -1.6537 C.ar           1 <1>                0.0000
     20 C20          2.2788  -1.5880  -1.9052 C.ar           1 <1>                0.0000
     21 C21          2.8284  -1.9603  -3.1354 C.ar           1 <1>                0.0000
     22 C22          3.9624  -2.7462  -3.1515 C.ar           1 <1>                0.0000
     23 N23          4.5261  -3.1448  -2.0274 N.ar           1 <1>                0.0000
     24 C24          4.0396  -2.8158  -0.8461 C.ar           1 <1>                0.0000
     25 C25          2.9117  -2.0282  -0.7390 C.ar           1 <1>                0.0000
     26 H26          0.0208   2.5790   3.2012 H              1 <1>                0.0000
     27 H27         -1.5290   2.5627   2.3259 H              1 <1>                0.0000
     28 H28         -1.5120   2.5532   4.1057 H              1 <1>                0.0000
     29 H29         -0.7512   0.5165   5.3368 H              1 <1>                0.0000
     30 H30         -0.2263  -0.9249   4.4341 H              1 <1>                0.0000
     31 H31          0.7816   0.5423   4.4323 H              1 <1>                0.0000
     32 H32          0.7577   0.5557   1.9340 H              1 <1>                0.0000
     33 H33         -0.2501  -0.9115   1.9357 H              1 <1>                0.0000
     34 H34         -1.7687   1.2101   0.8544 H              1 <1>                0.0000
     35 H35          0.8763  -0.6117  -3.9723 H              1 <1>                0.0000
     36 H36         -1.0045   0.6940  -5.0606 H              1 <1>                0.0000
     37 H37         -3.8098   2.6355  -2.6942 H              1 <1>                0.0000
     38 H38         -2.7498   1.8967  -0.6242 H              1 <1>                0.0000
     39 H39          2.3719  -1.6379  -4.0596 H              1 <1>                0.0000
     40 H40          4.3942  -3.0393  -4.0971 H              1 <1>                0.0000
     41 H41          4.5332  -3.1641   0.0491 H              1 <1>                0.0000
     42 H42          2.5188  -1.7627   0.2314 H              1 <1>                0.0000
@<TRIPOS>BOND
    1    1    2 1     
    2    1   26 1     
    3    1   27 1     
    4    1   28 1     
    5    2    3 1     
    6    2    4 1     
    7    2    8 1     
    8    3   29 1     
    9    3   30 1     
   10    3   31 1     
   11    4    5 1     
   12    4    6 1     
   13    4    7 1     
   14    8    9 1     
   15    8   32 1     
   16    8   33 1     
   17    9   10 1     
   18    9   34 1     
   19   10   19 ar    
   20   10   11 ar    
   21   11   12 ar    
   22   12   13 ar    
   23   12   20 1     
   24   13   14 ar    
   25   13   35 1     
   26   14   19 ar    
   27   14   15 ar    
   28   15   16 ar    
   29   15   36 1     
   30   16   17 ar    
   31   17   18 ar    
   32   17   37 1     
   33   18   19 ar    
   34   18   38 1     
   35   20   25 ar    
   36   20   21 ar    
   37   21   22 ar    
   38   21   39 1     
   39   22   23 ar    
   40   22   40 1     
   41   23   24 ar    
   42   24   25 ar    
   43   24   41 1     
   44   25   42 1     
@<TRIPOS>SUBSTRUCTURE
      1 ****           1
@<TRIPOS>SET
DONOR_HYDROGENS      STATIC     ATOMS    <user>   **** ""
4 5 6 7 34
ATOM$RED        STATIC     ATOMS    COLORGROUP SYSTEM
4 5 6 7 34
