@<TRIPOS>MOLECULE
09V
  13   13    0    0    0
SMALL
NO_CHARGES


@<TRIPOS>ATOM
   1 O1            -0.0173     1.4248     0.0099 O.3     
   2 C2             0.0021    -0.0041     0.0020 C.3     
   3 C3            -1.4333    -0.5336     0.0129 C.3     
   4 C4            -1.8990    -1.3373    -1.2029 C.3     
   5 C5            -1.6271    -2.0472     0.1249 C.3     
   6 H6             0.8606     1.8301     0.0037 H       
   7 H7             0.5123    -0.3556    -0.8948 H       
   8 H8             0.5293    -0.3651     0.8851 H       
   9 H9            -2.1665     0.1054     0.5051 H       
  10 H10           -2.9387    -1.2270    -1.5109 H       
  11 H11           -1.1828    -1.4888    -2.0105 H       
  12 H12           -0.7319    -2.6657     0.1908 H       
  13 H13           -2.4879    -2.4039     0.6904 H       
@<TRIPOS>BOND
   1    1    2 1
   2    1    6 1
   3    2    3 1
   4    2    7 1
   5    2    8 1
   6    3    5 1
   7    3    4 1
   8    3    9 1
   9    4    5 1
  10    4   10 1
  11    4   11 1
  12    5   12 1
  13    5   13 1





