#       Name:                0CJ
#       Creating user name   gbret
#       Creation time:       Thu Sep  8 18:46:34 2016


#       File generated by GOLD software.
#

@<TRIPOS>MOLECULE
0CJ
    24    23     1
SMALL
NO_CHARGES


@<TRIPOS>ATOM
      1 C1           1.7541   4.6106   0.1245 C.3            1 <1>                0.0000
      2 C2           1.7746   3.1037   0.1162 C.2            1 <1>                0.0000
      3 O3           2.8284   2.5142   0.1030 O.2            1 <1>                0.0000
      4 C4           0.4799   2.3325   0.1244 C.3            1 <1>                0.0000
      5 C5           0.7798   0.8323   0.1135 C.3            1 <1>                0.0000
      6 C6          -0.5347   0.0493   0.1219 C.3            1 <1>                0.0000
      7 O7          -0.2545  -1.3519   0.1117 O.3            1 <1>                0.0000
      8 P8          -1.4066  -2.4765   0.1166 P.3            1 <1>                0.0000
      9 O9          -2.1925  -2.4028   1.4448 O.co2          1 <1>                0.0000
     10 O10         -2.3701  -2.2320  -1.0661 O.co2          1 <1>                0.0000
     11 O11         -0.7357  -3.9327  -0.0299 O.3            1 <1>                0.0000
     12 P12         -1.2839  -5.3758  -0.4873 P.3            1 <1>                0.0000
     13 O13         -1.3400  -5.4413  -2.0516 O.co2          1 <1>                0.0000
     14 O14         -0.3245  -6.4926   0.0481 O.co2          1 <1>                0.0000
     15 O15         -2.7208  -5.5976   0.0964 O.co2          1 <1>                0.0000
     16 H16          2.7767   4.9879   0.1168 H              1 <1>                0.0000
     17 H17          1.2270   4.9717  -0.7586 H              1 <1>                0.0000
     18 H18          1.2439   4.9621   1.0213 H              1 <1>                0.0000
     19 H19         -0.0867   2.5833   1.0212 H              1 <1>                0.0000
     20 H20         -0.1037   2.5928  -0.7586 H              1 <1>                0.0000
     21 H21          1.3464   0.5815  -0.7833 H              1 <1>                0.0000
     22 H22          1.3634   0.5720   0.9966 H              1 <1>                0.0000
     23 H23         -1.1012   0.3001   1.0187 H              1 <1>                0.0000
     24 H24         -1.1182   0.3096  -0.7612 H              1 <1>                0.0000
@<TRIPOS>BOND
    1    1    2 1     
    2    1   16 1     
    3    1   17 1     
    4    1   18 1     
    5    2    3 2     
    6    2    4 1     
    7    4    5 1     
    8    4   19 1     
    9    4   20 1     
   10    5    6 1     
   11    5   21 1     
   12    5   22 1     
   13    6    7 1     
   14    6   23 1     
   15    6   24 1     
   16    7    8 1     
   17    8    9 ar    
   18    8   10 ar    
   19    8   11 1     
   20   11   12 1     
   21   12   13 ar    
   22   12   14 ar    
   23   12   15 ar    
@<TRIPOS>SUBSTRUCTURE
      1 ****           1
