#       Name:                0CZ
#       Creating user name   gbret
#       Creation time:       Thu Sep  8 18:47:27 2016


#       File generated by GOLD software.
#

@<TRIPOS>MOLECULE
0CZ
    33    34     1
SMALL
NO_CHARGES


@<TRIPOS>ATOM
      1 O1          -0.2881   4.9438  -0.9306 O.3            1 <1>                0.0000
      2 C2          -0.2307   3.5860  -0.9414 C.ar           1 <1>                0.0000
      3 C3           0.7425   2.9377  -1.6878 C.ar           1 <1>                0.0000
      4 C4           0.7986   1.5574  -1.6972 C.ar           1 <1>                0.0000
      5 C5          -0.1140   0.8222  -0.9636 C.ar           1 <1>                0.0000
      6 C6          -1.0852   1.4660  -0.2192 C.ar           1 <1>                0.0000
      7 C7          -1.1417   2.8462  -0.2016 C.ar           1 <1>                0.0000
      8 C8          -0.0504  -0.6834  -0.9756 C.3            1 <1>                0.0000
      9 C9           0.0869  -1.1917   0.4364 C.ar           1 <1>                0.0000
     10 C10          1.1361  -0.7596   1.2265 C.ar           1 <1>                0.0000
     11 C11          1.2639  -1.2237   2.5214 C.ar           1 <1>                0.0000
     12 C12          0.3386  -2.1241   3.0288 C.ar           1 <1>                0.0000
     13 O13          0.4619  -2.5818   4.3024 O.3            1 <1>                0.0000
     14 C14         -0.7132  -2.5562   2.2340 C.ar           1 <1>                0.0000
     15 C15         -0.8396  -2.0851   0.9415 C.ar           1 <1>                0.0000
     16 C16         -1.3318  -1.2431  -1.5967 C.3            1 <1>                0.0000
     17 F17         -1.4593  -0.7712  -2.9076 F              1 <1>                0.0000
     18 F18         -1.2728  -2.6408  -1.6079 F              1 <1>                0.0000
     19 F19         -2.4350  -0.8289  -0.8426 F              1 <1>                0.0000
     20 C20          1.1561  -1.1364  -1.8003 C.3            1 <1>                0.0000
     21 F21          2.3278  -0.6247  -1.2324 F              1 <1>                0.0000
     22 F22          1.2151  -2.5341  -1.8115 F              1 <1>                0.0000
     23 F23          1.0286  -0.6645  -3.1111 F              1 <1>                0.0000
     24 H24          0.2434   5.3544  -0.2349 H              1 <1>                0.0000
     25 H25          1.4553   3.5115  -2.2613 H              1 <1>                0.0000
     26 H26          1.5559   1.0522  -2.2784 H              1 <1>                0.0000
     27 H27         -1.7974   0.8895   0.3525 H              1 <1>                0.0000
     28 H28         -1.9003   3.3486   0.3803 H              1 <1>                0.0000
     29 H29          1.8564  -0.0588   0.8309 H              1 <1>                0.0000
     30 H30          2.0838  -0.8861   3.1380 H              1 <1>                0.0000
     31 H31          0.0025  -2.0424   4.9605 H              1 <1>                0.0000
     32 H32         -1.4349  -3.2572   2.6267 H              1 <1>                0.0000
     33 H33         -1.6582  -2.4212   0.3224 H              1 <1>                0.0000
@<TRIPOS>BOND
    1    1    2 1     
    2    1   24 1     
    3    2    7 ar    
    4    2    3 ar    
    5    3    4 ar    
    6    3   25 1     
    7    4    5 ar    
    8    4   26 1     
    9    5    6 ar    
   10    5    8 1     
   11    6    7 ar    
   12    6   27 1     
   13    7   28 1     
   14    8    9 1     
   15    8   16 1     
   16    8   20 1     
   17    9   15 ar    
   18    9   10 ar    
   19   10   11 ar    
   20   10   29 1     
   21   11   12 ar    
   22   11   30 1     
   23   12   13 1     
   24   12   14 ar    
   25   13   31 1     
   26   14   15 ar    
   27   14   32 1     
   28   15   33 1     
   29   16   17 1     
   30   16   18 1     
   31   16   19 1     
   32   20   21 1     
   33   20   22 1     
   34   20   23 1     
@<TRIPOS>SUBSTRUCTURE
      1 ****           1
@<TRIPOS>SET
DONOR_HYDROGENS      STATIC     ATOMS    <user>   **** ""
2 24 31
ATOM$RED        STATIC     ATOMS    COLORGROUP SYSTEM
2 24 31
