#       Name:                0DO
#       Creating user name   gbret
#       Creation time:       Thu Sep  8 18:48:24 2016


#       File generated by GOLD software.
#

@<TRIPOS>MOLECULE
0DO
    93    96     1
SMALL
NO_CHARGES


@<TRIPOS>ATOM
      1 C1          -2.8548  -2.4179  -4.7475 C.3            1 <1>                0.0000
      2 C2          -2.7944  -3.9219  -4.8201 C.ar           1 <1>                0.0000
      3 C3          -2.8695  -4.5585  -6.0438 C.ar           1 <1>                0.0000
      4 C4          -2.8143  -5.9384  -6.1110 C.ar           1 <1>                0.0000
      5 C5          -2.6837  -6.6846  -4.9543 C.ar           1 <1>                0.0000
      6 C6          -2.6082  -6.0528  -3.7282 C.ar           1 <1>                0.0000
      7 C7          -2.4660  -6.8667  -2.4679 C.3            1 <1>                0.0000
      8 C8          -2.6577  -4.6681  -3.6585 C.ar           1 <1>                0.0000
      9 O9          -2.5831  -4.0441  -2.4535 O.3            1 <1>                0.0000
     10 C10         -1.2796  -3.6957  -1.9829 C.3            1 <1>                0.0000
     11 C11         -1.3942  -3.0175  -0.6420 C.2            1 <1>                0.0000
     12 O12         -2.4848  -2.8492  -0.1389 O.2            1 <1>                0.0000
     13 N13         -0.2848  -2.5981  -0.0019 N.am           1 <1>                0.0000
     14 C14         -0.3963  -1.9389   1.3016 C.3            1 <1>                0.0000
     15 C15         -0.4553  -2.9972   2.4050 C.3            1 <1>                0.0000
     16 C16         -1.7182  -3.8062   2.2580 C.ar           1 <1>                0.0000
     17 C17         -2.8761  -3.4020   2.8959 C.ar           1 <1>                0.0000
     18 C18         -4.0345  -4.1441   2.7611 C.ar           1 <1>                0.0000
     19 C19         -4.0353  -5.2901   1.9881 C.ar           1 <1>                0.0000
     20 C20         -2.8776  -5.6938   1.3495 C.ar           1 <1>                0.0000
     21 C21         -1.7202  -4.9494   1.4809 C.ar           1 <1>                0.0000
     22 C22          0.8205  -1.0383   1.5234 C.3            1 <1>                0.0000
     23 O23          2.0106  -1.8286   1.4895 O.3            1 <1>                0.0000
     24 C24          0.8795   0.0201   0.4200 C.3            1 <1>                0.0000
     25 N25          1.9920   0.9422   0.6850 N.4            1 <1>                0.0000
     26 H26          2.8436   0.4145   0.8050 H              1 <1>                0.0000
     27 C27          2.1437   1.8619  -0.4488 C.3            1 <1>                0.0000
     28 C28          3.3517   2.7716  -0.2144 C.3            1 <1>                0.0000
     29 C29          3.1369   3.5750   1.0715 C.3            1 <1>                0.0000
     30 C30          2.9057   2.6059   2.2346 C.3            1 <1>                0.0000
     31 C31          1.7135   1.7037   1.9085 C.3            1 <1>                0.0000
     32 C32          0.4838   2.5510   1.7058 C.2            1 <1>                0.0000
     33 O33         -0.1258   2.4945   0.6588 O.2            1 <1>                0.0000
     34 N34          0.0614   3.3715   2.6881 N.am           1 <1>                0.0000
     35 C35         -1.1340   4.1952   2.4910 C.3            1 <1>                0.0000
     36 C36         -2.3381   3.2903   2.2220 C.3            1 <1>                0.0000
     37 C37         -1.3926   5.0277   3.7484 C.3            1 <1>                0.0000
     38 C38         -0.9198   5.1276   1.2971 C.3            1 <1>                0.0000
     39 S39          4.6049   4.5863   1.4073 S.o2           1 <1>                0.0000
     40 O40          4.3582   5.4818   2.4826 O.2            1 <1>                0.0000
     41 O41          5.7793   3.7870   1.3743 O.2            1 <1>                0.0000
     42 C42          4.7509   5.6315  -0.0038 C.ar           1 <1>                0.0000
     43 C43          5.4891   5.2340  -1.1080 C.ar           1 <1>                0.0000
     44 C44          5.5812   6.0805  -2.1967 C.ar           1 <1>                0.0000
     45 N45          4.9777   7.2530  -2.1924 N.ar           1 <1>                0.0000
     46 C46          4.2675   7.6636  -1.1600 C.ar           1 <1>                0.0000
     47 C47          4.1255   6.8684  -0.0385 C.ar           1 <1>                0.0000
     48 H48         -1.8467  -2.0098  -4.8212 H              1 <1>                0.0000
     49 H49         -3.4613  -2.0385  -5.5698 H              1 <1>                0.0000
     50 H50         -3.2999  -2.1174  -3.7990 H              1 <1>                0.0000
     51 H51         -2.9719  -3.9779  -6.9486 H              1 <1>                0.0000
     52 H52         -2.8735  -6.4343  -7.0686 H              1 <1>                0.0000
     53 H53         -2.6411  -7.7624  -5.0094 H              1 <1>                0.0000
     54 H54         -1.4086  -7.0178  -2.2503 H              1 <1>                0.0000
     55 H55         -2.9355  -6.3375  -1.6387 H              1 <1>                0.0000
     56 H56         -2.9509  -7.8335  -2.6031 H              1 <1>                0.0000
     57 H57         -0.6760  -4.5978  -1.8834 H              1 <1>                0.0000
     58 H58         -0.8059  -3.0182  -2.6934 H              1 <1>                0.0000
     59 H59          0.5875  -2.7328  -0.4043 H              1 <1>                0.0000
     60 H60         -1.3040  -1.3361   1.3275 H              1 <1>                0.0000
     61 H61          0.4095  -3.6557   2.3234 H              1 <1>                0.0000
     62 H62         -0.4486  -2.5076   3.3788 H              1 <1>                0.0000
     63 H63         -2.8755  -2.5066   3.4998 H              1 <1>                0.0000
     64 H64         -4.9390  -3.8287   3.2600 H              1 <1>                0.0000
     65 H65         -4.9402  -5.8703   1.8834 H              1 <1>                0.0000
     66 H66         -2.8781  -6.5894   0.7459 H              1 <1>                0.0000
     67 H67         -0.8158  -5.2648   0.9820 H              1 <1>                0.0000
     68 H68          0.7376  -0.5478   2.4932 H              1 <1>                0.0000
     69 H69          2.1493  -2.2950   0.6538 H              1 <1>                0.0000
     70 H70          1.0329  -0.4671  -0.5429 H              1 <1>                0.0000
     71 H71         -0.0572   0.5770   0.4003 H              1 <1>                0.0000
     72 H72          2.2933   1.2886  -1.3637 H              1 <1>                0.0000
     73 H73          1.2446   2.4704  -0.5453 H              1 <1>                0.0000
     74 H74          4.2515   2.1640  -0.1180 H              1 <1>                0.0000
     75 H75          3.4616   3.4549  -1.0564 H              1 <1>                0.0000
     76 H76          2.2664   4.2208   0.9567 H              1 <1>                0.0000
     77 H77          3.7963   1.9950   2.3818 H              1 <1>                0.0000
     78 H78          2.6968   3.1709   3.1430 H              1 <1>                0.0000
     79 H79          1.5451   1.0122   2.7341 H              1 <1>                0.0000
     80 H80          0.5489   3.4167   3.5254 H              1 <1>                0.0000
     81 H81         -2.4907   2.6261   3.0726 H              1 <1>                0.0000
     82 H82         -3.2275   3.9032   2.0754 H              1 <1>                0.0000
     83 H83         -2.1539   2.6972   1.3262 H              1 <1>                0.0000
     84 H84         -0.5348   5.6724   3.9401 H              1 <1>                0.0000
     85 H85         -2.2820   5.6406   3.6018 H              1 <1>                0.0000
     86 H86         -1.5452   4.3635   4.5990 H              1 <1>                0.0000
     87 H87         -0.7356   4.5344   0.4013 H              1 <1>                0.0000
     88 H88         -1.8093   5.7404   1.1505 H              1 <1>                0.0000
     89 H89         -0.0620   5.7722   1.4887 H              1 <1>                0.0000
     90 H90          5.9862   4.2753  -1.1172 H              1 <1>                0.0000
     91 H91          6.1544   5.7783  -3.0607 H              1 <1>                0.0000
     92 H92          3.7877   8.6306  -1.1929 H              1 <1>                0.0000
     93 H93          3.5421   7.2101   0.8037 H              1 <1>                0.0000
@<TRIPOS>BOND
    1    1    2 1     
    2    1   48 1     
    3    1   49 1     
    4    1   50 1     
    5    2    8 ar    
    6    2    3 ar    
    7    3    4 ar    
    8    3   51 1     
    9    4    5 ar    
   10    4   52 1     
   11    5    6 ar    
   12    5   53 1     
   13    6    7 1     
   14    6    8 ar    
   15    7   54 1     
   16    7   55 1     
   17    7   56 1     
   18    8    9 1     
   19    9   10 1     
   20   10   11 1     
   21   10   57 1     
   22   10   58 1     
   23   11   12 2     
   24   11   13 am    
   25   13   14 1     
   26   13   59 1     
   27   14   15 1     
   28   14   22 1     
   29   14   60 1     
   30   15   16 1     
   31   15   61 1     
   32   15   62 1     
   33   16   21 ar    
   34   16   17 ar    
   35   17   18 ar    
   36   17   63 1     
   37   18   19 ar    
   38   18   64 1     
   39   19   20 ar    
   40   19   65 1     
   41   20   21 ar    
   42   20   66 1     
   43   21   67 1     
   44   22   23 1     
   45   22   24 1     
   46   22   68 1     
   47   23   69 1     
   48   24   25 1     
   49   24   70 1     
   50   24   71 1     
   51   25   26 1     
   52   25   31 1     
   53   25   27 1     
   54   27   28 1     
   55   27   72 1     
   56   27   73 1     
   57   28   29 1     
   58   28   74 1     
   59   28   75 1     
   60   29   30 1     
   61   29   39 1     
   62   29   76 1     
   63   30   31 1     
   64   30   77 1     
   65   30   78 1     
   66   31   32 1     
   67   31   79 1     
   68   32   33 2     
   69   32   34 am    
   70   34   35 1     
   71   34   80 1     
   72   35   36 1     
   73   35   37 1     
   74   35   38 1     
   75   36   81 1     
   76   36   82 1     
   77   36   83 1     
   78   37   84 1     
   79   37   85 1     
   80   37   86 1     
   81   38   87 1     
   82   38   88 1     
   83   38   89 1     
   84   39   40 2     
   85   39   41 2     
   86   39   42 1     
   87   42   47 ar    
   88   42   43 ar    
   89   43   44 ar    
   90   43   90 1     
   91   44   45 ar    
   92   44   91 1     
   93   45   46 ar    
   94   46   47 ar    
   95   46   92 1     
   96   47   93 1     
@<TRIPOS>SUBSTRUCTURE
      1 ****           1
@<TRIPOS>SET
DONOR_HYDROGENS      STATIC     ATOMS    <user>   **** ""
4 59 69 26 80
ATOM$RED        STATIC     ATOMS    COLORGROUP SYSTEM
4 59 69 26 80
