#       Name:                0E5
#       Creating user name   gbret
#       Creation time:       Thu Sep  8 18:49:10 2016


#       File generated by GOLD software.
#

@<TRIPOS>MOLECULE
0E5
    23    22     1
SMALL
NO_CHARGES


@<TRIPOS>ATOM
      1 C1          -0.6660   2.2539   1.1341 C.3            1 <1>                0.0000
      2 C2          -0.6452   0.7240   1.1257 C.3            1 <1>                0.0000
      3 C3           0.0709   0.2306  -0.1331 C.3            1 <1>                0.0000
      4 C4          -0.5942   0.8385  -1.3696 C.3            1 <1>                0.0000
      5 O5           1.4430   0.6271  -0.0868 O.3            1 <1>                0.0000
      6 C6          -0.0170  -1.2952  -0.2049 C.3            1 <1>                0.0000
      7 N7           0.6706  -1.7689  -1.4135 N.4            1 <1>                0.0000
      8 H8           1.6395  -1.4890  -1.3808 H              1 <1>                0.0000
      9 H9           0.6127  -2.7751  -1.4609 H              1 <1>                0.0000
     10 H10          0.2320  -1.3680  -2.2290 H              1 <1>                0.0000
     11 C11          0.6381  -1.8939   1.0131 C.2            1 <1>                0.0000
     12 O12          0.1128  -1.7775   2.1071 O.co2          1 <1>                0.0000
     13 O13          1.6934  -2.4948   0.9043 O.co2          1 <1>                0.0000
     14 H14          0.3566   2.6312   1.1264 H              1 <1>                0.0000
     15 H15         -1.1932   2.6149   0.2511 H              1 <1>                0.0000
     16 H16         -1.1762   2.6054   2.0309 H              1 <1>                0.0000
     17 H17         -0.1180   0.3630   2.0088 H              1 <1>                0.0000
     18 H18         -1.6678   0.3467   1.1335 H              1 <1>                0.0000
     19 H19         -0.5316   1.9255  -1.3185 H              1 <1>                0.0000
     20 H20         -0.0840   0.4870  -2.2664 H              1 <1>                0.0000
     21 H21         -1.6408   0.5361  -1.4049 H              1 <1>                0.0000
     22 H22          1.9281   0.2772   0.6731 H              1 <1>                0.0000
     23 H23         -1.0636  -1.5976  -0.2402 H              1 <1>                0.0000
@<TRIPOS>BOND
    1    1    2 1     
    2    1   14 1     
    3    1   15 1     
    4    1   16 1     
    5    2    3 1     
    6    2   17 1     
    7    2   18 1     
    8    3    4 1     
    9    3    5 1     
   10    3    6 1     
   11    4   19 1     
   12    4   20 1     
   13    4   21 1     
   14    5   22 1     
   15    6    7 1     
   16    6   11 1     
   17    6   23 1     
   18    7    8 1     
   19    7    9 1     
   20    7   10 1     
   21   11   12 ar    
   22   11   13 ar    
@<TRIPOS>SUBSTRUCTURE
      1 ****           1
@<TRIPOS>SET
DONOR_HYDROGENS      STATIC     ATOMS    <user>   **** ""
4 22 8 9 10
ATOM$RED        STATIC     ATOMS    COLORGROUP SYSTEM
4 22 8 9 10
