#       Name:                0GS
#       Creating user name   gbret
#       Creation time:       Thu Sep  8 18:54:13 2016


#       File generated by GOLD software.
#

@<TRIPOS>MOLECULE
0GS
    55    57     1
SMALL
NO_CHARGES


@<TRIPOS>ATOM
      1 C1          -6.5070   1.1860   2.0118 C.3            1 <1>                0.0000
      2 C2          -6.4862  -0.3439   2.0034 C.3            1 <1>                0.0000
      3 F3          -5.8096  -0.8073   3.1368 F              1 <1>                0.0000
      4 F4          -7.7987  -0.8281   2.0133 F              1 <1>                0.0000
      5 C5          -5.7809  -0.8299   0.7635 C.ar           1 <1>                0.0000
      6 C6          -6.4989  -1.0583  -0.3956 C.ar           1 <1>                0.0000
      7 C7          -5.8520  -1.5040  -1.5328 C.ar           1 <1>                0.0000
      8 C8          -4.4867  -1.7210  -1.5112 C.ar           1 <1>                0.0000
      9 C9          -3.7687  -1.4918  -0.3527 C.ar           1 <1>                0.0000
     10 C10         -2.2807  -1.7288  -0.3291 C.3            1 <1>                0.0000
     11 N11         -1.5822  -0.4951  -0.7139 N.3            1 <1>                0.0000
     12 C12         -0.1261  -0.6890  -0.7020 C.3            1 <1>                0.0000
     13 C13          0.3168  -1.2937  -2.0363 C.3            1 <1>                0.0000
     14 S14          2.1001  -1.6336  -1.9687 S.o2           1 <1>                0.0000
     15 O15          2.3486  -2.5498  -0.9113 O.2            1 <1>                0.0000
     16 O16          2.5538  -1.9441  -3.2790 O.2            1 <1>                0.0000
     17 C17          2.7550  -0.0068  -1.4942 C.3            1 <1>                0.0000
     18 C18          2.0517   0.4604  -0.2178 C.3            1 <1>                0.0000
     19 C19          2.6628   1.7853   0.2428 C.3            1 <1>                0.0000
     20 C20          4.1007   1.5652   0.6365 C.ar           1 <1>                0.0000
     21 C21          4.4149   1.2264   1.9403 C.ar           1 <1>                0.0000
     22 C22          5.7331   1.0238   2.3048 C.ar           1 <1>                0.0000
     23 F23          6.0396   0.6923   3.5782 F              1 <1>                0.0000
     24 C24          6.7431   1.1612   1.3585 C.ar           1 <1>                0.0000
     25 N25          8.0781   0.9567   1.7231 N.pl3          1 <1>                0.0000
     26 C26          6.4229   1.5016   0.0509 C.ar           1 <1>                0.0000
     27 Br27         7.7916   1.6900  -1.2402 Br             1 <1>                0.0000
     28 C28          5.1019   1.6970  -0.3075 C.ar           1 <1>                0.0000
     29 C29          0.5621   0.6555  -0.4848 C.3            1 <1>                0.0000
     30 O30          0.3945   1.4642  -1.6510 O.3            1 <1>                0.0000
     31 C31         -4.4152  -1.0418   0.7836 C.ar           1 <1>                0.0000
     32 H32         -5.4844   1.5633   2.0041 H              1 <1>                0.0000
     33 H33         -7.0342   1.5470   1.1288 H              1 <1>                0.0000
     34 H34         -7.0172   1.5375   2.9086 H              1 <1>                0.0000
     35 H35         -7.5654  -0.8888  -0.4125 H              1 <1>                0.0000
     36 H36         -6.4130  -1.6831  -2.4381 H              1 <1>                0.0000
     37 H37         -3.9813  -2.0700  -2.3996 H              1 <1>                0.0000
     38 H38         -1.9752  -2.0210   0.6756 H              1 <1>                0.0000
     39 H39         -2.0281  -2.5234  -1.0311 H              1 <1>                0.0000
     40 H40         -1.8961  -0.1681  -1.6154 H              1 <1>                0.0000
     41 H41          0.1419  -1.3676   0.1077 H              1 <1>                0.0000
     42 H42         -0.2251  -2.2227  -2.2134 H              1 <1>                0.0000
     43 H43          0.1099  -0.5897  -2.8424 H              1 <1>                0.0000
     44 H44          3.8270  -0.0840  -1.3125 H              1 <1>                0.0000
     45 H45          2.5700   0.7087  -2.2954 H              1 <1>                0.0000
     46 H46          2.1827  -0.2891   0.5626 H              1 <1>                0.0000
     47 H47          2.6155   2.5095  -0.5705 H              1 <1>                0.0000
     48 H48          2.1054   2.1641   1.0995 H              1 <1>                0.0000
     49 H49          3.6298   1.1203   2.6742 H              1 <1>                0.0000
     50 H50          8.3004   0.7187   2.6369 H              1 <1>                0.0000
     51 H51          8.7816   1.0528   1.0621 H              1 <1>                0.0000
     52 H52          4.8526   1.9618  -1.3244 H              1 <1>                0.0000
     53 H53          0.1070   1.1582   0.3686 H              1 <1>                0.0000
     54 H54         -0.5289   1.6319  -1.8840 H              1 <1>                0.0000
     55 H55         -3.8542  -0.8627   1.6889 H              1 <1>                0.0000
@<TRIPOS>BOND
    1    1    2 1     
    2    1   32 1     
    3    1   33 1     
    4    1   34 1     
    5    2    3 1     
    6    2    4 1     
    7    2    5 1     
    8    5   31 ar    
    9    5    6 ar    
   10    6    7 ar    
   11    6   35 1     
   12    7    8 ar    
   13    7   36 1     
   14    8    9 ar    
   15    8   37 1     
   16    9   10 1     
   17    9   31 ar    
   18   10   11 1     
   19   10   38 1     
   20   10   39 1     
   21   11   12 1     
   22   11   40 1     
   23   12   29 1     
   24   12   13 1     
   25   12   41 1     
   26   13   14 1     
   27   13   42 1     
   28   13   43 1     
   29   14   15 2     
   30   14   16 2     
   31   14   17 1     
   32   17   18 1     
   33   17   44 1     
   34   17   45 1     
   35   18   19 1     
   36   18   29 1     
   37   18   46 1     
   38   19   20 1     
   39   19   47 1     
   40   19   48 1     
   41   20   28 ar    
   42   20   21 ar    
   43   21   22 ar    
   44   21   49 1     
   45   22   23 1     
   46   22   24 ar    
   47   24   25 1     
   48   24   26 ar    
   49   25   50 1     
   50   25   51 1     
   51   26   27 1     
   52   26   28 ar    
   53   28   52 1     
   54   29   30 1     
   55   29   53 1     
   56   30   54 1     
   57   31   55 1     
@<TRIPOS>SUBSTRUCTURE
      1 ****           1
@<TRIPOS>SET
DONOR_HYDROGENS      STATIC     ATOMS    <user>   **** ""
4 40 50 51 54
ATOM$RED        STATIC     ATOMS    COLORGROUP SYSTEM
4 40 50 51 54
