#       Name:                0M6
#       Creating user name   gbret
#       Creation time:       Thu Sep  8 19:03:57 2016


#       File generated by GOLD software.
#

@<TRIPOS>MOLECULE
0M6
    51    51     1
SMALL
NO_CHARGES


@<TRIPOS>ATOM
      1 C1          -0.7412  -2.4306  -0.5079 C.3            1 <1>                0.0000
      2 C2           0.6210  -1.8810  -0.9362 C.3            1 <1>                0.0000
      3 C3           1.1320  -2.6690  -2.1440 C.3            1 <1>                0.0000
      4 C4           0.4797  -0.4049  -1.3130 C.3            1 <1>                0.0000
      5 C5           0.1982   0.4181  -0.0543 C.3            1 <1>                0.0000
      6 N6          -1.1119   0.0490   0.4876 N.am           1 <1>                0.0000
      7 C7          -2.2364   0.5079  -0.0966 C.2            1 <1>                0.0000
      8 S8          -2.1398   1.4125  -1.5469 S.2            1 <1>                0.0000
      9 N9          -3.4371   0.2546   0.4609 N.am           1 <1>                0.0000
     10 C10         -4.6097   0.6305  -0.2029 C.ar           1 <1>                0.0000
     11 C11         -4.7180   0.4570  -1.5765 C.ar           1 <1>                0.0000
     12 C12         -5.8772   0.8288  -2.2288 C.ar           1 <1>                0.0000
     13 C13         -6.9293   1.3736  -1.5156 C.ar           1 <1>                0.0000
     14 C14         -6.8247   1.5476  -0.1478 C.ar           1 <1>                0.0000
     15 C15         -5.6703   1.1727   0.5113 C.ar           1 <1>                0.0000
     16 C16          1.2635   0.1419   0.9752 C.2            1 <1>                0.0000
     17 O17          0.9585  -0.3179   2.0552 O.2            1 <1>                0.0000
     18 N18          2.5553   0.4060   0.6956 N.am           1 <1>                0.0000
     19 C19          3.5910   0.1375   1.6964 C.3            1 <1>                0.0000
     20 C20          4.0227  -1.3274   1.6032 C.3            1 <1>                0.0000
     21 O21          4.6485  -1.5601   0.3397 O.3            1 <1>                0.0000
     22 C22          4.7973   1.0422   1.4372 C.3            1 <1>                0.0000
     23 C23          4.3952   2.5026   1.6527 C.3            1 <1>                0.0000
     24 O24          5.5219   3.3476   1.4106 O.3            1 <1>                0.0000
     25 H25         -1.4992  -2.1256  -1.2293 H              1 <1>                0.0000
     26 H26         -0.6969  -3.5189  -0.4657 H              1 <1>                0.0000
     27 H27         -0.9978  -2.0390   0.4764 H              1 <1>                0.0000
     28 H28          1.3279  -1.9797  -0.1124 H              1 <1>                0.0000
     29 H29          0.4251  -2.5704  -2.9678 H              1 <1>                0.0000
     30 H30          2.1024  -2.2774  -2.4491 H              1 <1>                0.0000
     31 H31          1.2327  -3.7206  -1.8756 H              1 <1>                0.0000
     32 H32          1.4039  -0.0577  -1.7749 H              1 <1>                0.0000
     33 H33         -0.3447  -0.2867  -2.0163 H              1 <1>                0.0000
     34 H34          0.2018   1.4788  -0.3053 H              1 <1>                0.0000
     35 H35         -1.1700  -0.5257   1.2669 H              1 <1>                0.0000
     36 H36         -3.4881  -0.1884   1.3223 H              1 <1>                0.0000
     37 H37         -3.8964   0.0322  -2.1342 H              1 <1>                0.0000
     38 H38         -5.9621   0.6941  -3.2970 H              1 <1>                0.0000
     39 H39         -7.8345   1.6641  -2.0281 H              1 <1>                0.0000
     40 H40         -7.6481   1.9734   0.4064 H              1 <1>                0.0000
     41 H41         -5.5892   1.3089   1.5796 H              1 <1>                0.0000
     42 H42          2.7992   0.7738  -0.1681 H              1 <1>                0.0000
     43 H43          3.1946   0.3368   2.6920 H              1 <1>                0.0000
     44 H44          4.7275  -1.5501   2.4043 H              1 <1>                0.0000
     45 H45          3.1481  -1.9707   1.6995 H              1 <1>                0.0000
     46 H46          4.9483  -2.4704   0.2111 H              1 <1>                0.0000
     47 H47          5.6015   0.7815   2.1253 H              1 <1>                0.0000
     48 H48          5.1391   0.9070   0.4111 H              1 <1>                0.0000
     49 H49          3.5910   2.7633   0.9646 H              1 <1>                0.0000
     50 H50          4.0535   2.6378   2.6789 H              1 <1>                0.0000
     51 H51          5.3395   4.2898   1.5288 H              1 <1>                0.0000
@<TRIPOS>BOND
    1    1    2 1     
    2    1   25 1     
    3    1   26 1     
    4    1   27 1     
    5    2    3 1     
    6    2    4 1     
    7    2   28 1     
    8    3   29 1     
    9    3   30 1     
   10    3   31 1     
   11    4    5 1     
   12    4   32 1     
   13    4   33 1     
   14    5    6 1     
   15    5   16 1     
   16    5   34 1     
   17    6    7 am    
   18    6   35 1     
   19    7    8 2     
   20    7    9 am    
   21    9   10 1     
   22    9   36 1     
   23   10   15 ar    
   24   10   11 ar    
   25   11   12 ar    
   26   11   37 1     
   27   12   13 ar    
   28   12   38 1     
   29   13   14 ar    
   30   13   39 1     
   31   14   15 ar    
   32   14   40 1     
   33   15   41 1     
   34   16   17 2     
   35   16   18 am    
   36   18   19 1     
   37   18   42 1     
   38   19   20 1     
   39   19   22 1     
   40   19   43 1     
   41   20   21 1     
   42   20   44 1     
   43   20   45 1     
   44   21   46 1     
   45   22   23 1     
   46   22   47 1     
   47   22   48 1     
   48   23   24 1     
   49   23   49 1     
   50   23   50 1     
   51   24   51 1     
@<TRIPOS>SUBSTRUCTURE
      1 ****           1
@<TRIPOS>SET
DONOR_HYDROGENS      STATIC     ATOMS    <user>   **** ""
5 35 36 42 46 51
ATOM$RED        STATIC     ATOMS    COLORGROUP SYSTEM
5 35 36 42 46 51
