#       Name:                0M9
#       Creating user name   gbret
#       Creation time:       Thu Sep  8 19:04:09 2016


#       File generated by GOLD software.
#

@<TRIPOS>MOLECULE
0M9
    26    25     1
SMALL
NO_CHARGES


@<TRIPOS>ATOM
      1 C1          -0.7706   3.5846   1.2978 C.3            1 <1>                0.0000
      2 C2          -0.7498   2.0546   1.2894 C.3            1 <1>                0.0000
      3 C3          -0.0337   1.5612   0.0306 C.3            1 <1>                0.0000
      4 N4          -0.0138   0.0924   0.0225 N.4            1 <1>                0.0000
      5 H5           0.4742  -0.2419   0.8400 H              1 <1>                0.0000
      6 H6          -0.9604  -0.2569   0.0297 H              1 <1>                0.0000
      7 C7           0.6738  -0.3814  -1.1861 C.3            1 <1>                0.0000
      8 C8           0.6946  -1.9112  -1.1945 C.3            1 <1>                0.0000
      9 P9           1.5763  -2.5151   0.2824 P.3            1 <1>                0.0000
     10 O10          0.8430  -2.0099   1.5714 O.co2          1 <1>                0.0000
     11 O11          1.5975  -4.0816   0.2738 O.co2          1 <1>                0.0000
     12 O12          3.0461  -1.9728   0.2713 O.co2          1 <1>                0.0000
     13 P13         -1.0157  -2.5422  -1.1815 P.3            1 <1>                0.0000
     14 O14         -1.7734  -2.0232  -2.4508 O.co2          1 <1>                0.0000
     15 O15         -0.9945  -4.1086  -1.1902 O.co2          1 <1>                0.0000
     16 O16         -1.7490  -2.0370   0.1074 O.co2          1 <1>                0.0000
     17 H17          0.2520   3.9619   1.2901 H              1 <1>                0.0000
     18 H18         -1.2978   3.9455   0.4148 H              1 <1>                0.0000
     19 H19         -1.2808   3.9360   2.1946 H              1 <1>                0.0000
     20 H20         -0.2226   1.6936   2.1725 H              1 <1>                0.0000
     21 H21         -1.7724   1.6773   1.2972 H              1 <1>                0.0000
     22 H22         -0.5609   1.9223  -0.8524 H              1 <1>                0.0000
     23 H23          0.9889   1.9385   0.0229 H              1 <1>                0.0000
     24 H24          0.1466  -0.0203  -2.0691 H              1 <1>                0.0000
     25 H25          1.6964  -0.0041  -1.1938 H              1 <1>                0.0000
     26 H26          1.2048  -2.2626  -2.0913 H              1 <1>                0.0000
@<TRIPOS>BOND
    1    1    2 1     
    2    1   17 1     
    3    1   18 1     
    4    1   19 1     
    5    2    3 1     
    6    2   20 1     
    7    2   21 1     
    8    3    4 1     
    9    3   22 1     
   10    3   23 1     
   11    4    5 1     
   12    4    6 1     
   13    4    7 1     
   14    7    8 1     
   15    7   24 1     
   16    7   25 1     
   17    8    9 1     
   18    8   13 1     
   19    8   26 1     
   20    9   10 ar    
   21    9   11 ar    
   22    9   12 ar    
   23   13   14 ar    
   24   13   15 ar    
   25   13   16 ar    
@<TRIPOS>SUBSTRUCTURE
      1 ****           1
@<TRIPOS>SET
DONOR_HYDROGENS      STATIC     ATOMS    <user>   **** ""
2 5 6
ATOM$RED        STATIC     ATOMS    COLORGROUP SYSTEM
2 5 6
