#       Name:                0OW
#       Creating user name   gbret
#       Creation time:       Thu Sep  8 19:09:58 2016


#       File generated by GOLD software.
#

@<TRIPOS>MOLECULE
0OW
    45    47     1
SMALL
NO_CHARGES


@<TRIPOS>ATOM
      1 N1           2.9548   3.3188  -0.9524 N.am           1 <1>                0.0000
      2 C2           2.9731   1.9711  -0.9598 C.2            1 <1>                0.0000
      3 O3           4.0348   1.3772  -0.9731 O.2            1 <1>                0.0000
      4 C4           1.7108   1.2193  -0.9518 C.ar           1 <1>                0.0000
      5 C5           1.0787   0.8492  -2.1569 C.ar           1 <1>                0.0000
      6 N6           1.6343   1.1867  -3.3729 N.pl3          1 <1>                0.0000
      7 N7          -0.0614   0.1693  -2.1000 N.ar           1 <1>                0.0000
      8 C8          -0.6013  -0.1590  -0.9371 C.ar           1 <1>                0.0000
      9 O9          -1.7634  -0.8517  -0.9279 O.3            1 <1>                0.0000
     10 C10         -2.3312  -1.1831  -2.1967 C.3            1 <1>                0.0000
     11 C11         -1.9074  -2.6103  -2.6242 C.3            1 <1>                0.0000
     12 C12         -3.0264  -3.0167  -3.6150 C.3            1 <1>                0.0000
     13 C13         -4.3107  -2.4248  -2.9987 C.3            1 <1>                0.0000
     14 C14         -3.8687  -1.2590  -2.0969 C.3            1 <1>                0.0000
     15 N15         -0.0418   0.1676   0.2176 N.ar           1 <1>                0.0000
     16 C16          1.1002   0.8422   0.2583 C.ar           1 <1>                0.0000
     17 O17          1.6631   1.1702   1.4440 O.3            1 <1>                0.0000
     18 C18          0.9734   0.7580   2.6257 C.3            1 <1>                0.0000
     19 C19          1.5411  -0.5870   3.1434 C.3            1 <1>                0.0000
     20 C20          1.1599  -0.5637   4.6444 C.3            1 <1>                0.0000
     21 C21          1.3560   0.9084   5.0618 C.3            1 <1>                0.0000
     22 C22          1.2375   1.7488   3.7783 C.3            1 <1>                0.0000
     23 O23          2.4552   2.4590   3.5440 O.3            1 <1>                0.0000
     24 H24          3.7882   3.8151  -0.9617 H              1 <1>                0.0000
     25 H25          2.1083   3.7923  -0.9418 H              1 <1>                0.0000
     26 H26          2.4671   1.6830  -3.4046 H              1 <1>                0.0000
     27 H27          1.1925   0.9277  -4.1967 H              1 <1>                0.0000
     28 H28         -2.0333  -0.4530  -2.9493 H              1 <1>                0.0000
     29 H29         -0.9380  -2.5924  -3.1223 H              1 <1>                0.0000
     30 H30         -1.8893  -3.2813  -1.7654 H              1 <1>                0.0000
     31 H31         -2.8408  -2.5845  -4.5982 H              1 <1>                0.0000
     32 H32         -3.1006  -4.1021  -3.6822 H              1 <1>                0.0000
     33 H33         -4.9686  -2.0586  -3.7868 H              1 <1>                0.0000
     34 H34         -4.8235  -3.1820  -2.4055 H              1 <1>                0.0000
     35 H35         -4.1670  -1.4504  -1.0661 H              1 <1>                0.0000
     36 H36         -4.3121  -0.3270  -2.4474 H              1 <1>                0.0000
     37 H37         -0.0960   0.6739   2.4324 H              1 <1>                0.0000
     38 H38          1.0659  -1.4272   2.6371 H              1 <1>                0.0000
     39 H39          2.6235  -0.6224   3.0202 H              1 <1>                0.0000
     40 H40          0.1204  -0.8630   4.7787 H              1 <1>                0.0000
     41 H41          1.8220  -1.2138   5.2163 H              1 <1>                0.0000
     42 H42          0.5832   1.2012   5.7725 H              1 <1>                0.0000
     43 H43          2.3424   1.0423   5.5060 H              1 <1>                0.0000
     44 H44          0.4071   2.4494   3.8660 H              1 <1>                0.0000
     45 H45          2.6876   3.0831   4.2451 H              1 <1>                0.0000
@<TRIPOS>BOND
    1    1    2 am    
    2    1   24 1     
    3    1   25 1     
    4    2    3 2     
    5    2    4 1     
    6    4   16 ar    
    7    4    5 ar    
    8    5    6 1     
    9    5    7 ar    
   10    6   26 1     
   11    6   27 1     
   12    7    8 ar    
   13    8    9 1     
   14    8   15 ar    
   15    9   10 1     
   16   10   14 1     
   17   10   11 1     
   18   10   28 1     
   19   11   12 1     
   20   11   29 1     
   21   11   30 1     
   22   12   13 1     
   23   12   31 1     
   24   12   32 1     
   25   13   14 1     
   26   13   33 1     
   27   13   34 1     
   28   14   35 1     
   29   14   36 1     
   30   15   16 ar    
   31   16   17 1     
   32   17   18 1     
   33   18   22 1     
   34   18   19 1     
   35   18   37 1     
   36   19   20 1     
   37   19   38 1     
   38   19   39 1     
   39   20   21 1     
   40   20   40 1     
   41   20   41 1     
   42   21   22 1     
   43   21   42 1     
   44   21   43 1     
   45   22   23 1     
   46   22   44 1     
   47   23   45 1     
@<TRIPOS>SUBSTRUCTURE
      1 ****           1
@<TRIPOS>SET
DONOR_HYDROGENS      STATIC     ATOMS    <user>   **** ""
5 24 25 26 27 45
ATOM$RED        STATIC     ATOMS    COLORGROUP SYSTEM
5 24 25 26 27 45
