#       Name:                0RV
#       Creating user name   gbret
#       Creation time:       Thu Sep  8 19:14:56 2016


#       File generated by GOLD software.
#

@<TRIPOS>MOLECULE
0RV
    51    52     1
SMALL
NO_CHARGES


@<TRIPOS>ATOM
      1 C1           4.0039   4.6317   1.9328 C.3            1 <1>                0.0000
      2 C2           4.0603   3.1102   1.7825 C.3            1 <1>                0.0000
      3 O3           4.8450   2.5558   2.8403 O.3            1 <1>                0.0000
      4 C4           2.6424   2.5386   1.8458 C.3            1 <1>                0.0000
      5 C5           1.8022   3.1322   0.7132 C.3            1 <1>                0.0000
      6 N6           2.2723   2.6301  -0.5836 N.2            1 <1>                0.0000
      7 C7           1.2989   1.9856  -1.1464 C.2            1 <1>                0.0000
      8 C8           1.3814   1.3257  -2.4760 C.2            1 <1>                0.0000
      9 O9           2.4205   1.3701  -3.1165 O.co2          1 <1>                0.0000
     10 O10          0.4100   0.7389  -2.9279 O.co2          1 <1>                0.0000
     11 C11          0.1003   1.9949  -0.2909 C.2            1 <1>                0.0000
     12 S12         -1.4391   1.2325  -0.6829 S.3            1 <1>                0.0000
     13 C13         -1.0305  -0.5349  -0.6843 C.3            1 <1>                0.0000
     14 C14         -0.9342  -1.0765   0.7642 C.3            1 <1>                0.0000
     15 N15         -1.2046  -2.5281   0.6029 N.4            1 <1>                0.0000
     16 H16         -0.3743  -3.0031   0.2817 H              1 <1>                0.0000
     17 H17         -1.5156  -2.9233   1.4776 H              1 <1>                0.0000
     18 C18         -2.2748  -2.6285  -0.4130 C.3            1 <1>                0.0000
     19 C19         -2.1882  -1.3635  -1.2869 C.3            1 <1>                0.0000
     20 C20         -2.0628  -3.8550  -1.2625 C.2            1 <1>                0.0000
     21 O21         -0.9753  -4.3910  -1.2930 O.2            1 <1>                0.0000
     22 N22         -3.0817  -4.3563  -1.9885 N.am           1 <1>                0.0000
     23 C23         -2.8756  -5.5486  -2.8144 C.3            1 <1>                0.0000
     24 C24         -4.3953  -3.7088  -1.9517 C.3            1 <1>                0.0000
     25 C25          0.3659   2.6737   0.8327 C.2            1 <1>                0.0000
     26 C26         -0.5746   2.9280   1.9823 C.3            1 <1>                0.0000
     27 C27          2.6979   1.0399   1.6978 C.2            1 <1>                0.0000
     28 O28          3.7719   0.4808   1.5549 O.co2          1 <1>                0.0000
     29 O29          1.6688   0.3865   1.7209 O.co2          1 <1>                0.0000
     30 H30          5.0140   5.0389   1.8877 H              1 <1>                0.0000
     31 H31          3.4054   5.0546   1.1259 H              1 <1>                0.0000
     32 H32          3.5523   4.8856   2.8918 H              1 <1>                0.0000
     33 H33          4.5119   2.8562   0.8235 H              1 <1>                0.0000
     34 H34          5.7577   2.8744   2.8615 H              1 <1>                0.0000
     35 H35          2.1908   2.7925   2.8048 H              1 <1>                0.0000
     36 H36          1.8533   4.2207   0.7379 H              1 <1>                0.0000
     37 H37         -0.1034  -0.7146  -1.2286 H              1 <1>                0.0000
     38 H38          0.0642  -0.9139   1.1701 H              1 <1>                0.0000
     39 H39         -1.6890  -0.6128   1.3992 H              1 <1>                0.0000
     40 H40         -3.2478  -2.6760   0.0761 H              1 <1>                0.0000
     41 H41         -3.1216  -0.8031  -1.2349 H              1 <1>                0.0000
     42 H42         -1.9640  -1.6317  -2.3194 H              1 <1>                0.0000
     43 H43         -3.0958  -6.4400  -2.2270 H              1 <1>                0.0000
     44 H44         -3.5379  -5.5105  -3.6792 H              1 <1>                0.0000
     45 H45         -1.8395  -5.5824  -3.1515 H              1 <1>                0.0000
     46 H46         -4.3561  -2.8447  -1.2885 H              1 <1>                0.0000
     47 H47         -4.6686  -3.3841  -2.9557 H              1 <1>                0.0000
     48 H48         -5.1387  -4.4159  -1.5836 H              1 <1>                0.0000
     49 H49         -1.5098   2.3947   1.8115 H              1 <1>                0.0000
     50 H50         -0.1199   2.5765   2.9084 H              1 <1>                0.0000
     51 H51         -0.7745   3.9968   2.0586 H              1 <1>                0.0000
@<TRIPOS>BOND
    1    1    2 1     
    2    1   30 1     
    3    1   31 1     
    4    1   32 1     
    5    2    3 1     
    6    2    4 1     
    7    2   33 1     
    8    3   34 1     
    9    4    5 1     
   10    4   27 1     
   11    4   35 1     
   12    5   25 1     
   13    5    6 1     
   14    5   36 1     
   15    6    7 2     
   16    7    8 1     
   17    7   11 1     
   18    8    9 ar    
   19    8   10 ar    
   20   11   12 1     
   21   11   25 2     
   22   12   13 1     
   23   13   19 1     
   24   13   14 1     
   25   13   37 1     
   26   14   15 1     
   27   14   38 1     
   28   14   39 1     
   29   15   16 1     
   30   15   17 1     
   31   15   18 1     
   32   18   19 1     
   33   18   20 1     
   34   18   40 1     
   35   19   41 1     
   36   19   42 1     
   37   20   21 2     
   38   20   22 am    
   39   22   23 1     
   40   22   24 1     
   41   23   43 1     
   42   23   44 1     
   43   23   45 1     
   44   24   46 1     
   45   24   47 1     
   46   24   48 1     
   47   25   26 1     
   48   26   49 1     
   49   26   50 1     
   50   26   51 1     
   51   27   28 ar    
   52   27   29 ar    
@<TRIPOS>SUBSTRUCTURE
      1 ****           1
@<TRIPOS>SET
DONOR_HYDROGENS      STATIC     ATOMS    <user>   **** ""
3 34 16 17
ATOM$RED        STATIC     ATOMS    COLORGROUP SYSTEM
3 34 16 17
