#       Name:                0S7
#       Creating user name   gbret
#       Creation time:       Thu Sep  8 19:15:46 2016


#       File generated by GOLD software.
#

@<TRIPOS>MOLECULE
0S7
    39    41     1
SMALL
NO_CHARGES


@<TRIPOS>ATOM
      1 C1          -0.0591   2.0011   4.9078 C.3            1 <1>                0.0000
      2 C2          -0.0386   0.4942   4.8995 C.2            1 <1>                0.0000
      3 C3          -0.0328  -0.3165   3.7614 C.2            1 <1>                0.0000
      4 C4          -0.0133  -1.6142   4.1733 C.2            1 <1>                0.0000
      5 N5          -0.0017  -2.7395   3.3518 N.pl3          1 <1>                0.0000
      6 C6          -0.0100  -2.5916   1.9730 C.ar           1 <1>                0.0000
      7 N7          -0.0234  -1.3807   1.4246 N.ar           1 <1>                0.0000
      8 C8          -0.0314  -1.2363   0.1082 C.ar           1 <1>                0.0000
      9 N9          -0.0453   0.0388  -0.4307 N.pl3          1 <1>                0.0000
     10 C10         -0.0543   0.2196  -1.8844 C.3            1 <1>                0.0000
     11 C11         -0.0691   1.7139  -2.2125 C.3            1 <1>                0.0000
     12 C12         -0.0783   1.8999  -3.7079 C.ar           1 <1>                0.0000
     13 C13          1.1132   1.9913  -4.4114 C.ar           1 <1>                0.0000
     14 C14          1.0563   2.1622  -5.7860 C.ar           1 <1>                0.0000
     15 C15         -0.1773   2.2352  -6.4052 C.ar           1 <1>                0.0000
     16 N16         -1.2903   2.1447  -5.7040 N.ar           1 <1>                0.0000
     17 C17         -1.2742   1.9758  -4.3961 C.ar           1 <1>                0.0000
     18 N18         -0.0259  -2.2814  -0.7060 N.ar           1 <1>                0.0000
     19 C19         -0.0126  -3.5172  -0.2282 C.ar           1 <1>                0.0000
     20 C20          0.0014  -3.7128   1.1398 C.ar           1 <1>                0.0000
     21 Br21         0.0207  -5.4582   1.8672 Br             1 <1>                0.0000
     22 N22         -0.0072  -1.6108   5.5313 N.pl3          1 <1>                0.0000
     23 H23          0.0061  -2.3932   6.1046 H              1 <1>                0.0000
     24 N24         -0.0177  -0.2763   5.9566 N.2            1 <1>                0.0000
     25 H25          0.9635   2.3784   4.9001 H              1 <1>                0.0000
     26 H26         -0.5862   2.3622   4.0247 H              1 <1>                0.0000
     27 H27         -0.5693   2.3526   5.8046 H              1 <1>                0.0000
     28 H28         -0.0424   0.0255   2.7370 H              1 <1>                0.0000
     29 H29          0.0121  -3.6264   3.7444 H              1 <1>                0.0000
     30 H30         -0.0491   0.8125   0.1543 H              1 <1>                0.0000
     31 H31          0.8375  -0.2377  -2.3130 H              1 <1>                0.0000
     32 H32         -0.9423  -0.2533  -2.3039 H              1 <1>                0.0000
     33 H33         -0.9610   2.1712  -1.7839 H              1 <1>                0.0000
     34 H34          0.8189   2.1868  -1.7930 H              1 <1>                0.0000
     35 H35          2.0628   1.9312  -3.9006 H              1 <1>                0.0000
     36 H36          1.9645   2.2376  -6.3656 H              1 <1>                0.0000
     37 H37         -0.2302   2.3682  -7.4757 H              1 <1>                0.0000
     38 H38         -2.2065   1.9057  -3.8555 H              1 <1>                0.0000
     39 H39         -0.0083  -4.3624  -0.9005 H              1 <1>                0.0000
@<TRIPOS>BOND
    1    1    2 1     
    2    1   25 1     
    3    1   26 1     
    4    1   27 1     
    5    2   24 2     
    6    2    3 1     
    7    3    4 2     
    8    3   28 1     
    9    4    5 1     
   10    4   22 1     
   11    5    6 1     
   12    5   29 1     
   13    6   20 ar    
   14    6    7 ar    
   15    7    8 ar    
   16    8    9 1     
   17    8   18 ar    
   18    9   10 1     
   19    9   30 1     
   20   10   11 1     
   21   10   31 1     
   22   10   32 1     
   23   11   12 1     
   24   11   33 1     
   25   11   34 1     
   26   12   17 ar    
   27   12   13 ar    
   28   13   14 ar    
   29   13   35 1     
   30   14   15 ar    
   31   14   36 1     
   32   15   16 ar    
   33   15   37 1     
   34   16   17 ar    
   35   17   38 1     
   36   18   19 ar    
   37   19   20 ar    
   38   19   39 1     
   39   20   21 1     
   40   22   23 1     
   41   22   24 1     
@<TRIPOS>SUBSTRUCTURE
      1 ****           1
@<TRIPOS>SET
DONOR_HYDROGENS      STATIC     ATOMS    <user>   **** ""
3 29 30 23
ATOM$RED        STATIC     ATOMS    COLORGROUP SYSTEM
3 29 30 23
