#       Name:                0S8
#       Creating user name   gbret
#       Creation time:       Thu Sep  8 19:15:50 2016


#       File generated by GOLD software.
#

@<TRIPOS>MOLECULE
0S8
    46    48     1
SMALL
NO_CHARGES


@<TRIPOS>ATOM
      1 C1           3.9071   5.1203  -2.4851 C.3            1 <1>                0.0000
      2 O2           3.9265   3.6914  -2.4930 O.3            1 <1>                0.0000
      3 C3           2.6291   3.0925  -2.4838 C.3            1 <1>                0.0000
      4 C4           2.7706   1.5691  -2.4933 C.3            1 <1>                0.0000
      5 C5           1.3815   0.9278  -2.4835 C.3            1 <1>                0.0000
      6 C6           1.5208  -0.5727  -2.4929 C.2            1 <1>                0.0000
      7 C7           0.9532  -1.4517  -1.5667 C.2            1 <1>                0.0000
      8 C8           1.3107  -2.7175  -1.9190 C.2            1 <1>                0.0000
      9 N9           0.9527  -3.8896  -1.2563 N.pl3          1 <1>                0.0000
     10 C10          0.1570  -3.8296  -0.1222 C.ar           1 <1>                0.0000
     11 N11         -0.2740  -2.6593   0.3382 N.ar           1 <1>                0.0000
     12 C12         -1.0340  -2.5989   1.4211 C.ar           1 <1>                0.0000
     13 N13         -1.4661  -1.3641   1.8741 N.pl3          1 <1>                0.0000
     14 C14         -2.3074  -1.2761   3.0701 C.3            1 <1>                0.0000
     15 C15         -2.6369   0.1681   3.3474 C.2            1 <1>                0.0000
     16 C16         -3.7047   0.8599   2.8828 C.2            1 <1>                0.0000
     17 C17         -3.5404   2.1519   3.4328 C.2            1 <1>                0.0000
     18 C18         -4.4511   3.3372   3.2412 C.3            1 <1>                0.0000
     19 N19         -2.4470   2.1146   4.1382 N.2            1 <1>                0.0000
     20 O20         -1.9342   1.0199   4.1072 O.3            1 <1>                0.0000
     21 N21         -1.3915  -3.6903   2.0816 N.ar           1 <1>                0.0000
     22 C22         -0.9979  -4.8898   1.6790 C.ar           1 <1>                0.0000
     23 C23         -0.2080  -4.9984   0.5502 C.ar           1 <1>                0.0000
     24 Br24         0.3774  -6.6892  -0.0615 Br             1 <1>                0.0000
     25 N25          2.0802  -2.6282  -3.0345 N.pl3          1 <1>                0.0000
     26 H26          2.4799  -3.3708  -3.5139 H              1 <1>                0.0000
     27 N27          2.1890  -1.2733  -3.3728 N.2            1 <1>                0.0000
     28 H28          4.9297   5.4976  -2.4929 H              1 <1>                0.0000
     29 H29          3.3799   5.4814  -3.3682 H              1 <1>                0.0000
     30 H30          3.3969   5.4718  -1.5883 H              1 <1>                0.0000
     31 H31          2.0924   3.4019  -1.5870 H              1 <1>                0.0000
     32 H32          2.0754   3.4115  -3.3668 H              1 <1>                0.0000
     33 H33          3.3073   1.2596  -3.3902 H              1 <1>                0.0000
     34 H34          3.3243   1.2501  -1.6103 H              1 <1>                0.0000
     35 H35          0.8448   1.2373  -1.5867 H              1 <1>                0.0000
     36 H36          0.8278   1.2468  -3.3666 H              1 <1>                0.0000
     37 H37          0.3401  -1.1761  -0.7214 H              1 <1>                0.0000
     38 H38          1.2600  -4.7477  -1.5883 H              1 <1>                0.0000
     39 H39         -1.2117  -0.5573   1.3995 H              1 <1>                0.0000
     40 H40         -3.2294  -1.8344   2.9077 H              1 <1>                0.0000
     41 H41         -1.7732  -1.6969   3.9220 H              1 <1>                0.0000
     42 H42         -4.4979   0.5064   2.2408 H              1 <1>                0.0000
     43 H43         -5.2126   3.3402   4.0211 H              1 <1>                0.0000
     44 H44         -3.8682   4.2564   3.2990 H              1 <1>                0.0000
     45 H45         -4.9313   3.2723   2.2648 H              1 <1>                0.0000
     46 H46         -1.2948  -5.7733   2.2246 H              1 <1>                0.0000
@<TRIPOS>BOND
    1    1    2 1     
    2    1   28 1     
    3    1   29 1     
    4    1   30 1     
    5    2    3 1     
    6    3    4 1     
    7    3   31 1     
    8    3   32 1     
    9    4    5 1     
   10    4   33 1     
   11    4   34 1     
   12    5    6 1     
   13    5   35 1     
   14    5   36 1     
   15    6   27 2     
   16    6    7 1     
   17    7    8 2     
   18    7   37 1     
   19    8    9 1     
   20    8   25 1     
   21    9   10 1     
   22    9   38 1     
   23   10   23 ar    
   24   10   11 ar    
   25   11   12 ar    
   26   12   13 1     
   27   12   21 ar    
   28   13   14 1     
   29   13   39 1     
   30   14   15 1     
   31   14   40 1     
   32   14   41 1     
   33   15   20 1     
   34   15   16 2     
   35   16   17 1     
   36   16   42 1     
   37   17   18 1     
   38   17   19 2     
   39   18   43 1     
   40   18   44 1     
   41   18   45 1     
   42   19   20 1     
   43   21   22 ar    
   44   22   23 ar    
   45   22   46 1     
   46   23   24 1     
   47   25   26 1     
   48   25   27 1     
@<TRIPOS>SUBSTRUCTURE
      1 ****           1
@<TRIPOS>SET
DONOR_HYDROGENS      STATIC     ATOMS    <user>   **** ""
3 38 39 26
ATOM$RED        STATIC     ATOMS    COLORGROUP SYSTEM
3 38 39 26
