#       Name:                0UB
#       Creating user name   gbret
#       Creation time:       Thu Sep  8 19:20:33 2016


#       File generated by GOLD software.
#

@<TRIPOS>MOLECULE
0UB
    66    68     1
SMALL
NO_CHARGES


@<TRIPOS>ATOM
      1 O1           3.8720   4.6300   4.3080 O.3            1 <1>                0.0000
      2 C2           3.7281   3.2820   4.7600 C.3            1 <1>                0.0000
      3 C3           2.2455   2.9041   4.7732 C.3            1 <1>                0.0000
      4 O4           1.7436   2.8076   3.4308 O.3            1 <1>                0.0000
      5 C5           0.7948   1.7385   3.3389 C.3            1 <1>                0.0000
      6 C6          -0.5760   2.2934   2.9467 C.3            1 <1>                0.0000
      7 O7          -0.4527   3.0669   1.7515 O.3            1 <1>                0.0000
      8 O8           1.2292   0.7872   2.3650 O.3            1 <1>                0.0000
      9 C9           1.4962   1.3518   1.0797 C.3            1 <1>                0.0000
     10 C10          2.0931   0.2798   0.1658 C.3            1 <1>                0.0000
     11 O11          1.1012  -0.7071  -0.1591 O.3            1 <1>                0.0000
     12 C12          1.2728  -1.1464  -1.5116 C.3            1 <1>                0.0000
     13 C13          1.5974  -2.6414  -1.5346 C.3            1 <1>                0.0000
     14 O14          0.5968  -3.3573  -0.8078 O.3            1 <1>                0.0000
     15 O15          0.0792  -0.8981  -2.2571 O.3            1 <1>                0.0000
     16 C16         -1.0964  -1.4690  -1.6790 C.3            1 <1>                0.0000
     17 C17         -2.3243  -1.0244  -2.4763 C.3            1 <1>                0.0000
     18 O18         -2.3281  -1.6442  -3.7808 O.3            1 <1>                0.0000
     19 C19         -3.6987  -1.5749  -4.2308 C.3            1 <1>                0.0000
     20 O20         -3.9996  -0.2623  -4.7090 O.3            1 <1>                0.0000
     21 C21         -3.9522  -2.6113  -5.3275 C.3            1 <1>                0.0000
     22 O22         -3.1091  -2.3353  -6.4478 O.3            1 <1>                0.0000
     23 C23         -4.5425  -1.8972  -2.9776 C.3            1 <1>                0.0000
     24 O24         -4.8710  -3.2874  -2.9392 O.3            1 <1>                0.0000
     25 C25         -3.6174  -1.5267  -1.7968 C.3            1 <1>                0.0000
     26 O26         -3.3465  -2.6768  -0.9930 O.3            1 <1>                0.0000
     27 C27          2.4463  -0.3463  -2.1167 C.3            1 <1>                0.0000
     28 O28          2.1617   0.0331  -3.4647 O.3            1 <1>                0.0000
     29 C29          2.5065   0.9004  -1.1925 C.3            1 <1>                0.0000
     30 O30          1.5706   1.8964  -1.6098 O.3            1 <1>                0.0000
     31 C31          0.7110   1.0686   4.7272 C.3            1 <1>                0.0000
     32 O32          0.6301  -0.3527   4.6020 O.3            1 <1>                0.0000
     33 C33          2.0563   1.4904   5.3785 C.3            1 <1>                0.0000
     34 O34          3.1156   0.6157   4.9851 O.3            1 <1>                0.0000
     35 H35          4.7881   4.9379   4.2743 H              1 <1>                0.0000
     36 H36          4.2673   2.6141   4.0883 H              1 <1>                0.0000
     37 H37          4.1352   3.1910   5.7670 H              1 <1>                0.0000
     38 H38          1.6736   3.6383   5.3407 H              1 <1>                0.0000
     39 H39         -1.2668   1.4678   2.7755 H              1 <1>                0.0000
     40 H40         -0.9560   2.9244   3.7502 H              1 <1>                0.0000
     41 H41         -1.2852   3.4506   1.4436 H              1 <1>                0.0000
     42 H42          0.5676   1.7231   0.6460 H              1 <1>                0.0000
     43 H43          2.2030   2.1750   1.1841 H              1 <1>                0.0000
     44 H44          2.9527  -0.1890   0.6448 H              1 <1>                0.0000
     45 H45          1.6184  -2.9928  -2.5662 H              1 <1>                0.0000
     46 H46          2.5709  -2.8089  -1.0738 H              1 <1>                0.0000
     47 H47          0.7389  -4.3134  -0.7806 H              1 <1>                0.0000
     48 H48         -1.0218  -2.5562  -1.7028 H              1 <1>                0.0000
     49 H49         -1.1929  -1.1339  -0.6463 H              1 <1>                0.0000
     50 H50         -2.3421   0.0614  -2.5701 H              1 <1>                0.0000
     51 H51         -3.4644   0.0128  -5.4659 H              1 <1>                0.0000
     52 H52         -3.7321  -3.6075  -4.9438 H              1 <1>                0.0000
     53 H53         -4.9960  -2.5639  -5.6379 H              1 <1>                0.0000
     54 H54         -3.2166  -2.9543  -7.1828 H              1 <1>                0.0000
     55 H55         -5.4482  -1.2911  -2.9607 H              1 <1>                0.0000
     56 H56         -5.4007  -3.5453  -2.1723 H              1 <1>                0.0000
     57 H57         -4.0647  -0.7357  -1.1949 H              1 <1>                0.0000
     58 H58         -4.1332  -3.0695  -0.5905 H              1 <1>                0.0000
     59 H59          3.3733  -0.9173  -2.0637 H              1 <1>                0.0000
     60 H60          2.8689   0.5381  -3.8888 H              1 <1>                0.0000
     61 H61          3.5166   1.3075  -1.1472 H              1 <1>                0.0000
     62 H62          1.7287   2.2358  -2.5013 H              1 <1>                0.0000
     63 H63         -0.1360   1.4551   5.2940 H              1 <1>                0.0000
     64 H64          0.5756  -0.8195   5.4471 H              1 <1>                0.0000
     65 H65          1.9698   1.5362   6.4641 H              1 <1>                0.0000
     66 H66          3.9745   0.8411   5.3680 H              1 <1>                0.0000
@<TRIPOS>BOND
    1    1    2 1     
    2    1   35 1     
    3    2    3 1     
    4    2   36 1     
    5    2   37 1     
    6    3   33 1     
    7    3    4 1     
    8    3   38 1     
    9    4    5 1     
   10    5    6 1     
   11    5    8 1     
   12    5   31 1     
   13    6    7 1     
   14    6   39 1     
   15    6   40 1     
   16    7   41 1     
   17    8    9 1     
   18    9   10 1     
   19    9   42 1     
   20    9   43 1     
   21   10   29 1     
   22   10   11 1     
   23   10   44 1     
   24   11   12 1     
   25   12   13 1     
   26   12   15 1     
   27   12   27 1     
   28   13   14 1     
   29   13   45 1     
   30   13   46 1     
   31   14   47 1     
   32   15   16 1     
   33   16   17 1     
   34   16   48 1     
   35   16   49 1     
   36   17   25 1     
   37   17   18 1     
   38   17   50 1     
   39   18   19 1     
   40   19   20 1     
   41   19   21 1     
   42   19   23 1     
   43   20   51 1     
   44   21   22 1     
   45   21   52 1     
   46   21   53 1     
   47   22   54 1     
   48   23   24 1     
   49   23   25 1     
   50   23   55 1     
   51   24   56 1     
   52   25   26 1     
   53   25   57 1     
   54   26   58 1     
   55   27   28 1     
   56   27   29 1     
   57   27   59 1     
   58   28   60 1     
   59   29   30 1     
   60   29   61 1     
   61   30   62 1     
   62   31   32 1     
   63   31   33 1     
   64   31   63 1     
   65   32   64 1     
   66   33   34 1     
   67   33   65 1     
   68   34   66 1     
@<TRIPOS>SUBSTRUCTURE
      1 ****           1
@<TRIPOS>SET
DONOR_HYDROGENS      STATIC     ATOMS    <user>   **** ""
11 35 41 47 51 54 56 58 60 62 64 66
ATOM$RED        STATIC     ATOMS    COLORGROUP SYSTEM
11 35 41 47 51 54 56 58 60 62 64 66
