#       Name:                0VN
#       Creating user name   gbret
#       Creation time:       Thu Sep  8 19:23:14 2016


#       File generated by GOLD software.
#

@<TRIPOS>MOLECULE
0VN
    40    42     1
SMALL
NO_CHARGES


@<TRIPOS>ATOM
      1 C1          -2.3774   1.8711   3.2376 C.3            1 <1>                0.0000
      2 C2          -2.9248   0.4961   2.8494 C.3            1 <1>                0.0000
      3 C3          -2.6904  -0.4886   3.9967 C.3            1 <1>                0.0000
      4 C4          -4.4250   0.6050   2.5692 C.3            1 <1>                0.0000
      5 C5          -2.2172   0.0045   1.6130 C.ar           1 <1>                0.0000
      6 C6          -2.9401  -0.2628   0.4648 C.ar           1 <1>                0.0000
      7 C7          -2.2947  -0.7130  -0.6701 C.ar           1 <1>                0.0000
      8 C8          -0.9180  -0.8972  -0.6574 C.ar           1 <1>                0.0000
      9 N9          -0.2614  -1.3524  -1.8048 N.pl3          1 <1>                0.0000
     10 C10          1.0183  -0.9216  -2.0834 C.2            1 <1>                0.0000
     11 N11          1.7494  -0.1730  -1.2935 N.2            1 <1>                0.0000
     12 C12          2.9525   0.0633  -1.8723 C.ar           1 <1>                0.0000
     13 C13          4.0832   0.7859  -1.4725 C.ar           1 <1>                0.0000
     14 C14          5.1756   0.8493  -2.2840 C.ar           1 <1>                0.0000
     15 C15          5.1796   0.1947  -3.5235 C.ar           1 <1>                0.0000
     16 C16          4.0599  -0.5293  -3.9362 C.ar           1 <1>                0.0000
     17 C17          2.9500  -0.5967  -3.1152 C.ar           1 <1>                0.0000
     18 N18          1.7144  -1.2160  -3.2199 N.pl3          1 <1>                0.0000
     19 H19          1.4022  -1.7561  -3.9627 H              1 <1>                0.0000
     20 C20          6.3339   0.2693  -4.3677 C.1            1 <1>                0.0000
     21 N21          7.2495   0.3284  -5.0375 N.1            1 <1>                0.0000
     22 C22         -0.1949  -0.6277   0.4976 C.ar           1 <1>                0.0000
     23 C23         -0.8458  -0.1727   1.6274 C.ar           1 <1>                0.0000
     24 H24         -1.3087   1.7936   3.4372 H              1 <1>                0.0000
     25 H25         -2.5444   2.5726   2.4203 H              1 <1>                0.0000
     26 H26         -2.8892   2.2267   4.1319 H              1 <1>                0.0000
     27 H27         -3.2022  -0.1330   4.8910 H              1 <1>                0.0000
     28 H28         -3.0804  -1.4682   3.7202 H              1 <1>                0.0000
     29 H29         -1.6216  -0.5661   4.1963 H              1 <1>                0.0000
     30 H30         -4.5920   1.3065   1.7519 H              1 <1>                0.0000
     31 H31         -4.8150  -0.3746   2.2927 H              1 <1>                0.0000
     32 H32         -4.9368   0.9605   3.4635 H              1 <1>                0.0000
     33 H33         -4.0105  -0.1198   0.4557 H              1 <1>                0.0000
     34 H34         -2.8598  -0.9220  -1.5664 H              1 <1>                0.0000
     35 H35         -0.7062  -1.9713  -2.4048 H              1 <1>                0.0000
     36 H36          4.0892   1.2942  -0.5196 H              1 <1>                0.0000
     37 H37          6.0447   1.4083  -1.9702 H              1 <1>                0.0000
     38 H38          4.0610  -1.0343  -4.8908 H              1 <1>                0.0000
     39 H39          0.8756  -0.7698   0.5108 H              1 <1>                0.0000
     40 H40         -0.2843   0.0370   2.5258 H              1 <1>                0.0000
@<TRIPOS>BOND
    1    1    2 1     
    2    1   24 1     
    3    1   25 1     
    4    1   26 1     
    5    2    3 1     
    6    2    4 1     
    7    2    5 1     
    8    3   27 1     
    9    3   28 1     
   10    3   29 1     
   11    4   30 1     
   12    4   31 1     
   13    4   32 1     
   14    5   23 ar    
   15    5    6 ar    
   16    6    7 ar    
   17    6   33 1     
   18    7    8 ar    
   19    7   34 1     
   20    8    9 1     
   21    8   22 ar    
   22    9   10 1     
   23    9   35 1     
   24   10   18 1     
   25   10   11 2     
   26   11   12 1     
   27   12   17 ar    
   28   12   13 ar    
   29   13   14 ar    
   30   13   36 1     
   31   14   15 ar    
   32   14   37 1     
   33   15   16 ar    
   34   15   20 1     
   35   16   17 ar    
   36   16   38 1     
   37   17   18 1     
   38   18   19 1     
   39   20   21 3     
   40   22   23 ar    
   41   22   39 1     
   42   23   40 1     
@<TRIPOS>SUBSTRUCTURE
      1 ****           1
@<TRIPOS>SET
DONOR_HYDROGENS      STATIC     ATOMS    <user>   **** ""
2 35 19
ATOM$RED        STATIC     ATOMS    COLORGROUP SYSTEM
2 35 19
