#       Name:                0WP
#       Creating user name   gbret
#       Creation time:       Thu Sep  8 19:25:34 2016


#       File generated by GOLD software.
#

@<TRIPOS>MOLECULE
0WP
    56    59     1
SMALL
NO_CHARGES


@<TRIPOS>ATOM
      1 C1          -1.2459   9.8446  -0.5593 C.3            1 <1>                0.0000
      2 O2          -1.1227   8.5062  -0.0739 O.3            1 <1>                0.0000
      3 C3          -2.0912   8.0644   0.7653 C.2            1 <1>                0.0000
      4 N4          -3.1591   8.7627   1.1798 N.pl3          1 <1>                0.0000
      5 H5          -3.3615   9.6756   0.9217 H              1 <1>                0.0000
      6 N6          -3.9383   7.9801   2.0383 N.2            1 <1>                0.0000
      7 C7          -3.3777   6.7922   2.1743 C.ar           1 <1>                0.0000
      8 N8          -3.6898   5.6814   2.8613 N.ar           1 <1>                0.0000
      9 C9          -2.9309   4.6164   2.8115 C.ar           1 <1>                0.0000
     10 C10         -1.7590   4.5635   2.0496 C.ar           1 <1>                0.0000
     11 N11         -0.9892   3.3918   2.0379 N.am           1 <1>                0.0000
     12 C12         -1.5913   2.1891   2.1242 C.2            1 <1>                0.0000
     13 O13         -2.8051   2.1150   2.1193 O.2            1 <1>                0.0000
     14 C14         -0.7778   0.9624   2.2248 C.ar           1 <1>                0.0000
     15 C15         -0.4054   0.4666   3.4796 C.ar           1 <1>                0.0000
     16 F16         -0.7911   1.1108   4.6027 F              1 <1>                0.0000
     17 C17          0.3566  -0.6826   3.5687 C.ar           1 <1>                0.0000
     18 C18          0.7540  -1.3458   2.4222 C.ar           1 <1>                0.0000
     19 C19          0.3907  -0.8635   1.1720 C.ar           1 <1>                0.0000
     20 N20          0.7969  -1.5413   0.0151 N.am           1 <1>                0.0000
     21 C21          0.9215  -2.8833   0.0290 C.2            1 <1>                0.0000
     22 O22          0.7633  -3.4977   1.0661 O.2            1 <1>                0.0000
     23 C23          1.2504  -3.6080  -1.2166 C.ar           1 <1>                0.0000
     24 C24          1.4384  -2.9049  -2.4080 C.ar           1 <1>                0.0000
     25 C25          1.7451  -3.5872  -3.5668 C.ar           1 <1>                0.0000
     26 C26          1.8662  -4.9657  -3.5503 C.ar           1 <1>                0.0000
     27 C27          1.6808  -5.6685  -2.3732 C.ar           1 <1>                0.0000
     28 C28          1.3802  -4.9976  -1.2056 C.ar           1 <1>                0.0000
     29 C29          1.8142  -7.1695  -2.3649 C.3            1 <1>                0.0000
     30 C30          2.1559  -7.6590  -3.7736 C.3            1 <1>                0.0000
     31 C31          2.9286  -7.5771  -1.3990 C.3            1 <1>                0.0000
     32 C32          0.5436  -7.7726  -1.9306 C.1            1 <1>                0.0000
     33 N33         -0.4370  -8.2380  -1.5954 N.1            1 <1>                0.0000
     34 C34         -0.3801   0.2868   1.0676 C.ar           1 <1>                0.0000
     35 F35         -0.7348   0.7574  -0.1481 F              1 <1>                0.0000
     36 C36         -1.3579   5.6472   1.3146 C.ar           1 <1>                0.0000
     37 C37         -2.1606   6.8035   1.3473 C.ar           1 <1>                0.0000
     38 H38         -0.4080  10.0704  -1.2189 H              1 <1>                0.0000
     39 H39         -2.1803   9.9464  -1.1111 H              1 <1>                0.0000
     40 H40         -1.2432  10.5378   0.2818 H              1 <1>                0.0000
     41 H41         -3.2202   3.7453   3.3806 H              1 <1>                0.0000
     42 H42         -0.0233   3.4467   1.9676 H              1 <1>                0.0000
     43 H43          0.6432  -1.0642   4.5375 H              1 <1>                0.0000
     44 H44          1.3501  -2.2431   2.4997 H              1 <1>                0.0000
     45 H45          0.9884  -1.0449  -0.7959 H              1 <1>                0.0000
     46 H46          1.3434  -1.8292  -2.4223 H              1 <1>                0.0000
     47 H47          1.8907  -3.0446  -4.4891 H              1 <1>                0.0000
     48 H48          2.1062  -5.4952  -4.4605 H              1 <1>                0.0000
     49 H49          1.2356  -5.5474  -0.2874 H              1 <1>                0.0000
     50 H50          3.0968  -7.2125  -4.0952 H              1 <1>                0.0000
     51 H51          2.2524  -8.7447  -3.7675 H              1 <1>                0.0000
     52 H52          1.3620  -7.3687  -4.4617 H              1 <1>                0.0000
     53 H53          2.6851  -7.2284  -0.3954 H              1 <1>                0.0000
     54 H54          3.0251  -8.6628  -1.3929 H              1 <1>                0.0000
     55 H55          3.8695  -7.1305  -1.7206 H              1 <1>                0.0000
     56 H56         -0.4544   5.6145   0.7239 H              1 <1>                0.0000
@<TRIPOS>BOND
    1    1    2 1     
    2    1   38 1     
    3    1   39 1     
    4    1   40 1     
    5    2    3 1     
    6    3   37 2     
    7    3    4 1     
    8    4    5 1     
    9    4    6 1     
   10    6    7 2     
   11    7   37 ar    
   12    7    8 ar    
   13    8    9 ar    
   14    9   10 ar    
   15    9   41 1     
   16   10   11 1     
   17   10   36 ar    
   18   11   12 am    
   19   11   42 1     
   20   12   13 2     
   21   12   14 1     
   22   14   34 ar    
   23   14   15 ar    
   24   15   16 1     
   25   15   17 ar    
   26   17   18 ar    
   27   17   43 1     
   28   18   19 ar    
   29   18   44 1     
   30   19   20 1     
   31   19   34 ar    
   32   20   21 am    
   33   20   45 1     
   34   21   22 2     
   35   21   23 1     
   36   23   28 ar    
   37   23   24 ar    
   38   24   25 ar    
   39   24   46 1     
   40   25   26 ar    
   41   25   47 1     
   42   26   27 ar    
   43   26   48 1     
   44   27   28 ar    
   45   27   29 1     
   46   28   49 1     
   47   29   30 1     
   48   29   31 1     
   49   29   32 1     
   50   30   50 1     
   51   30   51 1     
   52   30   52 1     
   53   31   53 1     
   54   31   54 1     
   55   31   55 1     
   56   32   33 3     
   57   34   35 1     
   58   36   37 ar    
   59   36   56 1     
@<TRIPOS>SUBSTRUCTURE
      1 ****           1
@<TRIPOS>SET
DONOR_HYDROGENS      STATIC     ATOMS    <user>   **** ""
3 5 42 45
ATOM$RED        STATIC     ATOMS    COLORGROUP SYSTEM
3 5 42 45
