#       Name:                0X9
#       Creating user name   gbret
#       Creation time:       Thu Sep  8 19:26:37 2016


#       File generated by GOLD software.
#

@<TRIPOS>MOLECULE
0X9
    31    30     1
SMALL
NO_CHARGES


@<TRIPOS>ATOM
      1 N1           3.6726   2.4689  -0.2455 N.pl3          1 <1>                0.0000
      2 C2           3.6907   1.1371  -0.2528 C.cat          1 <1>                0.0000
      3 N3           4.8531   0.4869  -0.2674 N.pl3          1 <1>                0.0000
      4 H4           4.8662  -0.4830  -0.2727 H              1 <1>                0.0000
      5 H5           5.6864   0.9833  -0.2727 H              1 <1>                0.0000
      6 N6           2.5155   0.4372  -0.2453 N.pl3          1 <1>                0.0000
      7 C7           1.2370   1.1523  -0.2293 C.3            1 <1>                0.0000
      8 C8           0.0878   0.1423  -0.2237 C.3            1 <1>                0.0000
      9 C9          -1.2474   0.8892  -0.2070 C.3            1 <1>                0.0000
     10 C10         -2.3967  -0.1207  -0.2014 C.3            1 <1>                0.0000
     11 N11         -2.3663  -0.8883   1.0461 N.pl3          1 <1>                0.0000
     12 S12         -2.8050  -2.4851   1.0466 S.o2           1 <1>                0.0000
     13 N13         -1.6941  -3.2989   0.1268 N.pl3          1 <1>                0.0000
     14 O14         -2.6372  -2.9468   2.3800 O.2            1 <1>                0.0000
     15 O15         -4.0393  -2.5624   0.3468 O.2            1 <1>                0.0000
     16 C16         -3.7095   0.6115  -0.3088 C.2            1 <1>                0.0000
     17 O17         -4.1898   0.8443  -1.4050 O.co2          1 <1>                0.0000
     18 O18         -4.2912   0.9712   0.7005 O.co2          1 <1>                0.0000
     19 H19          4.5060   2.9653  -0.2507 H              1 <1>                0.0000
     20 H20          2.8261   2.9425  -0.2389 H              1 <1>                0.0000
     21 H21          2.5287  -0.5327  -0.2507 H              1 <1>                0.0000
     22 H22          1.1793   1.7733   0.6646 H              1 <1>                0.0000
     23 H23          1.1623   1.7829  -1.1152 H              1 <1>                0.0000
     24 H24          0.1455  -0.4787  -1.1176 H              1 <1>                0.0000
     25 H25          0.1625  -0.4882   0.6622 H              1 <1>                0.0000
     26 H26         -1.3052   1.5103   0.6870 H              1 <1>                0.0000
     27 H27         -1.3222   1.5198  -1.0929 H              1 <1>                0.0000
     28 H28         -2.2886  -0.7988  -1.0479 H              1 <1>                0.0000
     29 H29         -2.0892  -0.4611   1.8717 H              1 <1>                0.0000
     30 H30         -1.4862  -4.2255   0.3245 H              1 <1>                0.0000
     31 H31         -1.2515  -2.8491  -0.6098 H              1 <1>                0.0000
@<TRIPOS>BOND
    1    1    2 ar    
    2    1   19 1     
    3    1   20 1     
    4    2    3 ar    
    5    2    6 ar    
    6    3    4 1     
    7    3    5 1     
    8    6    7 1     
    9    6   21 1     
   10    7    8 1     
   11    7   22 1     
   12    7   23 1     
   13    8    9 1     
   14    8   24 1     
   15    8   25 1     
   16    9   10 1     
   17    9   26 1     
   18    9   27 1     
   19   10   11 1     
   20   10   16 1     
   21   10   28 1     
   22   11   12 1     
   23   11   29 1     
   24   12   13 1     
   25   12   14 2     
   26   12   15 2     
   27   13   30 1     
   28   13   31 1     
   29   16   17 ar    
   30   16   18 ar    
@<TRIPOS>SUBSTRUCTURE
      1 ****           1
@<TRIPOS>SET
DONOR_HYDROGENS      STATIC     ATOMS    <user>   **** ""
8 19 20 4 5 21 29 30 31
ATOM$RED        STATIC     ATOMS    COLORGROUP SYSTEM
8 19 20 4 5 21 29 30 31
