#       Name:                0Y2
#       Creating user name   gbret
#       Creation time:       Thu Sep  8 19:28:29 2016


#       File generated by GOLD software.
#

@<TRIPOS>MOLECULE
0Y2
    67    71     1
SMALL
NO_CHARGES


@<TRIPOS>ATOM
      1 N1          -6.7549   4.9207  -0.6733 N.pl3          1 <1>                0.0000
      2 C2          -6.5493   3.5561  -0.7767 C.ar           1 <1>                0.0000
      3 N3          -7.4881   2.7635  -1.2837 N.ar           1 <1>                0.0000
      4 C4          -7.3007   1.4604  -1.3863 C.ar           1 <1>                0.0000
      5 N5          -6.1881   0.8737  -0.9977 N.ar           1 <1>                0.0000
      6 C6          -5.1930   1.5851  -0.4783 C.ar           1 <1>                0.0000
      7 N7          -3.9444   1.2924   0.0092 N.pl3          1 <1>                0.0000
      8 C8          -3.3778   2.4650   0.4120 C.2            1 <1>                0.0000
      9 N9          -4.2000   3.4515   0.2015 N.2            1 <1>                0.0000
     10 C10         -5.3410   2.9770  -0.3536 C.ar           1 <1>                0.0000
     11 C11         -3.3325  -0.0366   0.0835 C.3            1 <1>                0.0000
     12 O12         -1.8966   0.0763   0.1903 O.3            1 <1>                0.0000
     13 C13         -1.4560  -1.1831   0.7432 C.3            1 <1>                0.0000
     14 C14         -0.0717  -1.0314   1.3769 C.3            1 <1>                0.0000
     15 N15          0.9257  -0.7973   0.3242 N.4            1 <1>                0.0000
     16 H16          0.7955  -1.4686  -0.4178 H              1 <1>                0.0000
     17 C17          0.7636   0.5613  -0.2107 C.3            1 <1>                0.0000
     18 C18          1.1257   0.5708  -1.6972 C.3            1 <1>                0.0000
     19 C19          0.9826   1.9911  -2.2479 C.3            1 <1>                0.0000
     20 N20          1.9683   2.8682  -1.6021 N.4            1 <1>                0.0000
     21 H21          1.8740   3.8049  -1.9653 H              1 <1>                0.0000
     22 H22          1.8096   2.8763  -0.6057 H              1 <1>                0.0000
     23 H23          2.8984   2.5260  -1.7919 H              1 <1>                0.0000
     24 C24          1.2196   1.9790  -3.7361 C.2            1 <1>                0.0000
     25 O25          0.4036   1.4608  -4.4791 O.co2          1 <1>                0.0000
     26 O26          2.2273   2.4875  -4.1970 O.co2          1 <1>                0.0000
     27 C27          2.2749  -0.9443   0.8864 C.3            1 <1>                0.0000
     28 C28          3.3087  -0.8517  -0.2376 C.3            1 <1>                0.0000
     29 C29          4.6827  -1.1200   0.3203 C.2            1 <1>                0.0000
     30 C30          5.4927  -0.1541   0.7059 C.2            1 <1>                0.0000
     31 S31          7.0110  -0.7935   1.3050 S.3            1 <1>                0.0000
     32 C32          6.5060  -2.4526   1.0112 C.ar           1 <1>                0.0000
     33 C33          7.1774  -3.6599   1.2295 C.ar           1 <1>                0.0000
     34 C34          6.5718  -4.8537   0.9169 C.ar           1 <1>                0.0000
     35 C35          5.2901  -4.8678   0.3831 C.ar           1 <1>                0.0000
     36 C36          4.6187  -3.7046   0.1631 C.ar           1 <1>                0.0000
     37 C37          5.2135  -2.4641   0.4799 C.ar           1 <1>                0.0000
     38 C38         -2.5062  -1.5295   1.8219 C.3            1 <1>                0.0000
     39 O39         -2.0710  -1.0806   3.1069 O.3            1 <1>                0.0000
     40 C40         -3.7690  -0.7579   1.3779 C.3            1 <1>                0.0000
     41 O41         -4.1524   0.1911   2.3751 O.3            1 <1>                0.0000
     42 H42         -6.0604   5.4894  -0.3052 H              1 <1>                0.0000
     43 H43         -7.5918   5.3092  -0.9724 H              1 <1>                0.0000
     44 H44         -8.0899   0.8531  -1.8042 H              1 <1>                0.0000
     45 H45         -2.3921   2.5610   0.8429 H              1 <1>                0.0000
     46 H46         -3.6043  -0.6282  -0.7907 H              1 <1>                0.0000
     47 H47         -1.4364  -1.9509  -0.0301 H              1 <1>                0.0000
     48 H48         -0.0780  -0.1866   2.0658 H              1 <1>                0.0000
     49 H49          0.1807  -1.9417   1.9206 H              1 <1>                0.0000
     50 H50         -0.2716   0.8793  -0.0868 H              1 <1>                0.0000
     51 H51          1.4204   1.2445   0.3277 H              1 <1>                0.0000
     52 H52          2.1549   0.2344  -1.8226 H              1 <1>                0.0000
     53 H53          0.4564  -0.0979  -2.2384 H              1 <1>                0.0000
     54 H54         -0.0221   2.3607  -2.0429 H              1 <1>                0.0000
     55 H55          2.4547  -0.1508   1.6117 H              1 <1>                0.0000
     56 H56          2.3596  -1.9129   1.3791 H              1 <1>                0.0000
     57 H57          3.0778  -1.5902  -1.0054 H              1 <1>                0.0000
     58 H58          3.2824   0.1467  -0.6741 H              1 <1>                0.0000
     59 H59          5.2518   0.8976   0.6581 H              1 <1>                0.0000
     60 H60          8.1744  -3.6543   1.6445 H              1 <1>                0.0000
     61 H61          7.0946  -5.7834   1.0866 H              1 <1>                0.0000
     62 H62          4.8219  -5.8102   0.1400 H              1 <1>                0.0000
     63 H63          3.6224  -3.7309  -0.2530 H              1 <1>                0.0000
     64 H64         -2.6975  -2.6025   1.8380 H              1 <1>                0.0000
     65 H65         -2.6931  -1.2724   3.8220 H              1 <1>                0.0000
     66 H66         -4.5865  -1.4491   1.1728 H              1 <1>                0.0000
     67 H67         -4.3787  -0.2043   3.2281 H              1 <1>                0.0000
@<TRIPOS>BOND
    1    1    2 1     
    2    1   42 1     
    3    1   43 1     
    4    2   10 ar    
    5    2    3 ar    
    6    3    4 ar    
    7    4    5 ar    
    8    4   44 1     
    9    5    6 ar    
   10    6   10 ar    
   11    6    7 1     
   12    7    8 1     
   13    7   11 1     
   14    8    9 2     
   15    8   45 1     
   16    9   10 1     
   17   11   40 1     
   18   11   12 1     
   19   11   46 1     
   20   12   13 1     
   21   13   14 1     
   22   13   38 1     
   23   13   47 1     
   24   14   15 1     
   25   14   48 1     
   26   14   49 1     
   27   15   16 1     
   28   15   17 1     
   29   15   27 1     
   30   17   18 1     
   31   17   50 1     
   32   17   51 1     
   33   18   19 1     
   34   18   52 1     
   35   18   53 1     
   36   19   20 1     
   37   19   24 1     
   38   19   54 1     
   39   20   21 1     
   40   20   22 1     
   41   20   23 1     
   42   24   25 ar    
   43   24   26 ar    
   44   27   28 1     
   45   27   55 1     
   46   27   56 1     
   47   28   29 1     
   48   28   57 1     
   49   28   58 1     
   50   29   37 1     
   51   29   30 2     
   52   30   31 1     
   53   30   59 1     
   54   31   32 1     
   55   32   37 ar    
   56   32   33 ar    
   57   33   34 ar    
   58   33   60 1     
   59   34   35 ar    
   60   34   61 1     
   61   35   36 ar    
   62   35   62 1     
   63   36   37 ar    
   64   36   63 1     
   65   38   39 1     
   66   38   40 1     
   67   38   64 1     
   68   39   65 1     
   69   40   41 1     
   70   40   66 1     
   71   41   67 1     
@<TRIPOS>SUBSTRUCTURE
      1 ****           1
@<TRIPOS>SET
DONOR_HYDROGENS      STATIC     ATOMS    <user>   **** ""
8 42 43 16 21 22 23 65 67
ATOM$RED        STATIC     ATOMS    COLORGROUP SYSTEM
8 42 43 16 21 22 23 65 67
