#       Name:                11D
#       Creating user name   gbret
#       Creation time:       Thu Sep  8 19:35:53 2016


#       File generated by GOLD software.
#

@<TRIPOS>MOLECULE
11D
    63    64     1
SMALL
NO_CHARGES


@<TRIPOS>ATOM
      1 C1           5.7280   1.9235  -3.6992 C.3            1 <1>                0.0000
      2 N2           4.8032   2.4638  -4.7045 N.3            1 <1>                0.0000
      3 C3           5.4364   2.5145  -6.0290 C.3            1 <1>                0.0000
      4 C4           3.6219   1.7263  -4.7437 C.ar           1 <1>                0.0000
      5 C5           3.6518   0.3800  -5.0404 C.ar           1 <1>                0.0000
      6 C6           2.4776  -0.3654  -5.0821 C.ar           1 <1>                0.0000
      7 C7           1.2694   0.2111  -4.8325 C.ar           1 <1>                0.0000
      8 C8           1.1952   1.5804  -4.5263 C.ar           1 <1>                0.0000
      9 C9          -0.0381   2.2021  -4.2637 C.ar           1 <1>                0.0000
     10 C10         -0.0736   3.5305  -3.9700 C.ar           1 <1>                0.0000
     11 C11          1.0959   4.2868  -3.9256 C.ar           1 <1>                0.0000
     12 C12          2.3077   3.7180  -4.1748 C.ar           1 <1>                0.0000
     13 C13          2.3842   2.3490  -4.4745 C.ar           1 <1>                0.0000
     14 S14         -1.5301   1.2663  -4.3152 S.o2           1 <1>                0.0000
     15 O15         -2.5758   2.1581  -3.9538 O.2            1 <1>                0.0000
     16 O16         -1.5107   0.5472  -5.5407 O.2            1 <1>                0.0000
     17 N17         -1.4417   0.1358  -3.1083 N.pl3          1 <1>                0.0000
     18 C18         -1.3853   0.5623  -1.7079 C.3            1 <1>                0.0000
     19 C19         -1.7129  -0.6247  -0.7998 C.3            1 <1>                0.0000
     20 C20         -1.6541  -0.1793   0.6628 C.3            1 <1>                0.0000
     21 C21         -1.9817  -1.3662   1.5709 C.3            1 <1>                0.0000
     22 C22         -1.9228  -0.9208   3.0335 C.3            1 <1>                0.0000
     23 C23         -2.2504  -2.1078   3.9417 C.3            1 <1>                0.0000
     24 C24         -2.1915  -1.6624   5.4042 C.3            1 <1>                0.0000
     25 C25         -2.5191  -2.8493   6.3124 C.3            1 <1>                0.0000
     26 C26         -2.4603  -2.4039   7.7749 C.3            1 <1>                0.0000
     27 C27         -2.7879  -3.5909   8.6831 C.3            1 <1>                0.0000
     28 C28         -2.7299  -3.1522  10.1237 C.2            1 <1>                0.0000
     29 O29         -2.4523  -1.9972  10.3985 O.co2          1 <1>                0.0000
     30 O30         -2.9606  -3.9522  11.0143 O.co2          1 <1>                0.0000
     31 H31          6.6417   2.5177  -3.6895 H              1 <1>                0.0000
     32 H32          5.2590   1.9622  -2.7160 H              1 <1>                0.0000
     33 H33          5.9695   0.8897  -3.9461 H              1 <1>                0.0000
     34 H34          5.7309   1.5091  -6.3297 H              1 <1>                0.0000
     35 H35          4.7299   2.9184  -6.7543 H              1 <1>                0.0000
     36 H36          6.3182   3.1538  -5.9860 H              1 <1>                0.0000
     37 H37          4.5972  -0.1012  -5.2430 H              1 <1>                0.0000
     38 H38          2.5252  -1.4186  -5.3167 H              1 <1>                0.0000
     39 H39          0.3688  -0.3837  -4.8703 H              1 <1>                0.0000
     40 H40         -1.0224   4.0056  -3.7687 H              1 <1>                0.0000
     41 H41          1.0404   5.3394  -3.6904 H              1 <1>                0.0000
     42 H42          3.2060   4.3164  -4.1372 H              1 <1>                0.0000
     43 H43         -1.4272  -0.8087  -3.3287 H              1 <1>                0.0000
     44 H44         -0.3845   0.9290  -1.4798 H              1 <1>                0.0000
     45 H45         -2.1108   1.3585  -1.5411 H              1 <1>                0.0000
     46 H46         -2.7137  -0.9914  -1.0279 H              1 <1>                0.0000
     47 H47         -0.9875  -1.4209  -0.9666 H              1 <1>                0.0000
     48 H48         -0.6533   0.1874   0.8909 H              1 <1>                0.0000
     49 H49         -2.3795   0.6169   0.8296 H              1 <1>                0.0000
     50 H50         -2.9825  -1.7329   1.3428 H              1 <1>                0.0000
     51 H51         -1.2562  -2.1624   1.4041 H              1 <1>                0.0000
     52 H52         -0.9220  -0.5541   3.2616 H              1 <1>                0.0000
     53 H53         -2.6483  -0.1246   3.2003 H              1 <1>                0.0000
     54 H54         -3.2512  -2.4745   3.7135 H              1 <1>                0.0000
     55 H55         -1.5249  -2.9040   3.7748 H              1 <1>                0.0000
     56 H56         -1.1907  -1.2957   5.6324 H              1 <1>                0.0000
     57 H57         -2.9170  -0.8662   5.5710 H              1 <1>                0.0000
     58 H58         -3.5199  -3.2160   6.0842 H              1 <1>                0.0000
     59 H59         -1.7937  -3.6455   6.1456 H              1 <1>                0.0000
     60 H60         -1.4595  -2.0373   8.0031 H              1 <1>                0.0000
     61 H61         -3.1857  -1.6077   7.9417 H              1 <1>                0.0000
     62 H62         -3.7887  -3.9576   8.4549 H              1 <1>                0.0000
     63 H63         -2.0624  -4.3871   8.5163 H              1 <1>                0.0000
@<TRIPOS>BOND
    1    1    2 1     
    2    1   31 1     
    3    1   32 1     
    4    1   33 1     
    5    2    3 1     
    6    2    4 1     
    7    3   34 1     
    8    3   35 1     
    9    3   36 1     
   10    4   13 ar    
   11    4    5 ar    
   12    5    6 ar    
   13    5   37 1     
   14    6    7 ar    
   15    6   38 1     
   16    7    8 ar    
   17    7   39 1     
   18    8   13 ar    
   19    8    9 ar    
   20    9   10 ar    
   21    9   14 1     
   22   10   11 ar    
   23   10   40 1     
   24   11   12 ar    
   25   11   41 1     
   26   12   13 ar    
   27   12   42 1     
   28   14   15 2     
   29   14   16 2     
   30   14   17 1     
   31   17   18 1     
   32   17   43 1     
   33   18   19 1     
   34   18   44 1     
   35   18   45 1     
   36   19   20 1     
   37   19   46 1     
   38   19   47 1     
   39   20   21 1     
   40   20   48 1     
   41   20   49 1     
   42   21   22 1     
   43   21   50 1     
   44   21   51 1     
   45   22   23 1     
   46   22   52 1     
   47   22   53 1     
   48   23   24 1     
   49   23   54 1     
   50   23   55 1     
   51   24   25 1     
   52   24   56 1     
   53   24   57 1     
   54   25   26 1     
   55   25   58 1     
   56   25   59 1     
   57   26   27 1     
   58   26   60 1     
   59   26   61 1     
   60   27   28 1     
   61   27   62 1     
   62   27   63 1     
   63   28   29 ar    
   64   28   30 ar    
@<TRIPOS>SUBSTRUCTURE
      1 ****           1
@<TRIPOS>SET
DONOR_HYDROGENS      STATIC     ATOMS    <user>   **** ""
1 43
ATOM$RED        STATIC     ATOMS    COLORGROUP SYSTEM
1 43
