#       Name:                11W
#       Creating user name   gbret
#       Creation time:       Thu Sep  8 19:36:55 2016


#       File generated by GOLD software.
#

@<TRIPOS>MOLECULE
11W
    47    48     1
SMALL
NO_CHARGES


@<TRIPOS>ATOM
      1 N1          -1.2833   5.5771  -2.8560 N.4            1 <1>                0.0000
      2 H2          -1.2696   4.5682  -2.8616 H              1 <1>                0.0000
      3 H3          -0.3367   5.9264  -2.8632 H              1 <1>                0.0000
      4 H4          -1.7713   5.9114  -3.6735 H              1 <1>                0.0000
      5 C5          -1.9709   6.0509  -1.6474 C.3            1 <1>                0.0000
      6 C6          -1.2309   5.5440  -0.4079 C.3            1 <1>                0.0000
      7 C7          -1.3176   4.0176  -0.3508 C.3            1 <1>                0.0000
      8 C8          -0.4744   3.5022   0.8172 C.3            1 <1>                0.0000
      9 C9          -0.4600   1.9954   0.8000 C.2            1 <1>                0.0000
     10 C10          0.6957   1.3430   0.7818 C.2            1 <1>                0.0000
     11 C11          0.7098  -0.1332   0.7649 C.ar           1 <1>                0.0000
     12 C12         -0.4941  -0.8431   0.7622 C.ar           1 <1>                0.0000
     13 C13         -0.4820  -2.2088   0.7471 C.ar           1 <1>                0.0000
     14 C14          0.7362  -2.8972   0.7337 C.ar           1 <1>                0.0000
     15 C15          1.9411  -2.1855   0.7358 C.ar           1 <1>                0.0000
     16 C16          1.9270  -0.8197   0.7457 C.ar           1 <1>                0.0000
     17 N17          0.7492  -4.2618   0.7189 N.2            1 <1>                0.0000
     18 N18          1.8725  -4.8959   0.7066 N.2            1 <1>                0.0000
     19 C19          1.8856  -6.2623   0.6918 C.ar           1 <1>                0.0000
     20 C20          0.6838  -6.9761   0.6843 C.ar           1 <1>                0.0000
     21 C21          0.7050  -8.3549   0.6695 C.ar           1 <1>                0.0000
     22 C22          1.9120  -9.0319   0.6625 C.ar           1 <1>                0.0000
     23 C23          3.1059  -8.3320   0.6703 C.ar           1 <1>                0.0000
     24 C24          3.1007  -6.9530   0.6784 C.ar           1 <1>                0.0000
     25 C25         -2.7532   3.6029  -0.1554 C.2            1 <1>                0.0000
     26 O26         -3.6261   4.4497  -0.0698 O.co2          1 <1>                0.0000
     27 O27         -3.0417   2.4205  -0.0830 O.co2          1 <1>                0.0000
     28 C28         -1.9913   7.5577  -1.6391 C.2            1 <1>                0.0000
     29 O29         -2.6705   8.1537  -0.8205 O.co2          1 <1>                0.0000
     30 O30         -1.3287   8.1808  -2.4510 O.co2          1 <1>                0.0000
     31 H31         -2.9935   5.6736  -1.6397 H              1 <1>                0.0000
     32 H32         -0.1851   5.8469  -0.4599 H              1 <1>                0.0000
     33 H33         -1.6878   5.9676   0.4865 H              1 <1>                0.0000
     34 H34         -0.9417   3.5972  -1.2836 H              1 <1>                0.0000
     35 H35          0.5450   3.8764   0.7224 H              1 <1>                0.0000
     36 H36         -0.9034   3.8507   1.7567 H              1 <1>                0.0000
     37 H37         -1.3900   1.4464   0.8024 H              1 <1>                0.0000
     38 H38          1.6257   1.8919   0.7793 H              1 <1>                0.0000
     39 H39         -1.4342  -0.3116   0.7726 H              1 <1>                0.0000
     40 H40         -1.4124  -2.7572   0.7458 H              1 <1>                0.0000
     41 H41          2.8818  -2.7160   0.7255 H              1 <1>                0.0000
     42 H42          2.8567  -0.2703   0.7474 H              1 <1>                0.0000
     43 H43         -0.2589  -6.4492   0.6905 H              1 <1>                0.0000
     44 H44         -0.2228  -8.9078   0.6637 H              1 <1>                0.0000
     45 H45          1.9224 -10.1118   0.6512 H              1 <1>                0.0000
     46 H46          4.0441  -8.8671   0.6655 H              1 <1>                0.0000
     47 H47          4.0332  -6.4081   0.6842 H              1 <1>                0.0000
@<TRIPOS>BOND
    1    1    2 1     
    2    1    3 1     
    3    1    4 1     
    4    1    5 1     
    5    5    6 1     
    6    5   28 1     
    7    5   31 1     
    8    6    7 1     
    9    6   32 1     
   10    6   33 1     
   11    7    8 1     
   12    7   25 1     
   13    7   34 1     
   14    8    9 1     
   15    8   35 1     
   16    8   36 1     
   17    9   10 2     
   18    9   37 1     
   19   10   11 1     
   20   10   38 1     
   21   11   16 ar    
   22   11   12 ar    
   23   12   13 ar    
   24   12   39 1     
   25   13   14 ar    
   26   13   40 1     
   27   14   15 ar    
   28   14   17 1     
   29   15   16 ar    
   30   15   41 1     
   31   16   42 1     
   32   17   18 2     
   33   18   19 1     
   34   19   24 ar    
   35   19   20 ar    
   36   20   21 ar    
   37   20   43 1     
   38   21   22 ar    
   39   21   44 1     
   40   22   23 ar    
   41   22   45 1     
   42   23   24 ar    
   43   23   46 1     
   44   24   47 1     
   45   25   26 ar    
   46   25   27 ar    
   47   28   29 ar    
   48   28   30 ar    
@<TRIPOS>SUBSTRUCTURE
      1 ****           1
@<TRIPOS>SET
DONOR_HYDROGENS      STATIC     ATOMS    <user>   **** ""
3 2 3 4
ATOM$RED        STATIC     ATOMS    COLORGROUP SYSTEM
3 2 3 4
