#       Name:                12T
#       Creating user name   gbret
#       Creation time:       Thu Sep  8 19:39:09 2016


#       File generated by GOLD software.
#

@<TRIPOS>MOLECULE
12T
    18    18     1
SMALL
NO_CHARGES


@<TRIPOS>ATOM
      1 N1          -0.0426   2.4058  -0.0310 N.pl3          1 <1>                0.0000
      2 C2          -0.0215   1.0185  -0.0119 C.ar           1 <1>                0.0000
      3 C3          -1.2090   0.3045   0.0947 C.ar           1 <1>                0.0000
      4 C4          -1.1828  -1.0874   0.1130 C.ar           1 <1>                0.0000
      5 C5           0.0359  -1.7680   0.0247 C.ar           1 <1>                0.0000
      6 C6           1.2147  -1.0669  -0.0806 C.ar           1 <1>                0.0000
      7 C7           1.1990   0.3313  -0.1061 C.ar           1 <1>                0.0000
      8 C8           2.4621   1.0819  -0.2194 C.2            1 <1>                0.0000
      9 O9           3.5134   0.4854  -0.4064 O.co2          1 <1>                0.0000
     10 O10          2.4592   2.3015  -0.1263 O.co2          1 <1>                0.0000
     11 C11         -2.4463  -1.8478   0.2265 C.2            1 <1>                0.0000
     12 O12         -3.5121  -1.2542   0.3041 O.co2          1 <1>                0.0000
     13 O13         -2.4247  -3.0699   0.2426 O.co2          1 <1>                0.0000
     14 H14          0.7869   2.9024  -0.1095 H              1 <1>                0.0000
     15 H15         -0.8872   2.8788   0.0303 H              1 <1>                0.0000
     16 H16         -2.1508   0.8286   0.1637 H              1 <1>                0.0000
     17 H17          0.0515  -2.8478   0.0395 H              1 <1>                0.0000
     18 H18          2.1532  -1.5970  -0.1479 H              1 <1>                0.0000
@<TRIPOS>BOND
    1    1    2 1     
    2    1   14 1     
    3    1   15 1     
    4    2    7 ar    
    5    2    3 ar    
    6    3    4 ar    
    7    3   16 1     
    8    4    5 ar    
    9    4   11 1     
   10    5    6 ar    
   11    5   17 1     
   12    6    7 ar    
   13    6   18 1     
   14    7    8 1     
   15    8    9 ar    
   16    8   10 ar    
   17   11   12 ar    
   18   11   13 ar    
@<TRIPOS>SUBSTRUCTURE
      1 ****           1
@<TRIPOS>SET
DONOR_HYDROGENS      STATIC     ATOMS    <user>   **** ""
2 14 15
ATOM$RED        STATIC     ATOMS    COLORGROUP SYSTEM
2 14 15
