#       Name:                138
#       Creating user name   gbret
#       Creation time:       Thu Sep  8 19:40:07 2016


#       File generated by GOLD software.
#

@<TRIPOS>MOLECULE
138
    86    89     1
SMALL
NO_CHARGES


@<TRIPOS>ATOM
      1 N1          -0.7394   8.3684   0.9539 N.pl3          1 <1>                0.0000
      2 C2          -0.7206   6.9854   0.9463 C.ar           1 <1>                0.0000
      3 N3          -1.8799   6.3319   0.9485 N.ar           1 <1>                0.0000
      4 C4          -1.9272   5.0103   0.9415 C.ar           1 <1>                0.0000
      5 O5          -3.1129   4.3591   0.9433 O.3            1 <1>                0.0000
      6 C6          -0.7065   4.2941   0.9315 C.ar           1 <1>                0.0000
      7 C7          -0.6669   2.8950   0.9231 C.ar           1 <1>                0.0000
      8 C8           0.5384   2.2569   0.9133 C.ar           1 <1>                0.0000
      9 C9           0.5817   0.7505   0.9043 C.3            1 <1>                0.0000
     10 C10          0.5892   0.2492  -0.5412 C.3            1 <1>                0.0000
     11 O11          1.7956   0.6660  -1.1837 O.3            1 <1>                0.0000
     12 C12          0.5073  -1.2786  -0.5516 C.3            1 <1>                0.0000
     13 N13          1.5946  -1.8327   0.2662 N.4            1 <1>                0.0000
     14 H14          2.4830  -1.5409  -0.1130 H              1 <1>                0.0000
     15 H15          1.5071  -1.4977   1.2139 H              1 <1>                0.0000
     16 C16          1.5161  -3.2996   0.2563 C.3            1 <1>                0.0000
     17 C17          2.6315  -3.8681   1.0951 C.2            1 <1>                0.0000
     18 O18          3.4147  -3.1245   1.6470 O.2            1 <1>                0.0000
     19 N19          2.7586  -5.2028   1.2322 N.am           1 <1>                0.0000
     20 C20          3.8429  -5.7555   2.0477 C.3            1 <1>                0.0000
     21 O21          3.3303  -6.2271   3.3129 O.3            1 <1>                0.0000
     22 C22          4.3184  -7.1613   3.7993 C.3            1 <1>                0.0000
     23 C23          3.6987  -8.1001   4.8364 C.3            1 <1>                0.0000
     24 O24          3.3375  -7.3529   5.9997 O.3            1 <1>                0.0000
     25 P25          2.6564  -8.0228   7.2956 P.3            1 <1>                0.0000
     26 O26          3.6646  -9.0228   7.9574 O.co2          1 <1>                0.0000
     27 O27          2.2796  -6.9034   8.3249 O.co2          1 <1>                0.0000
     28 O28          1.3623  -8.7940   6.8656 O.co2          1 <1>                0.0000
     29 C29          4.7591  -7.9559   2.5500 C.3            1 <1>                0.0000
     30 O30          4.0099  -9.1675   2.4372 O.3            1 <1>                0.0000
     31 C31          4.4391  -7.0098   1.3711 C.3            1 <1>                0.0000
     32 O32          3.4825  -7.6081   0.4943 O.3            1 <1>                0.0000
     33 C33         -0.5952   0.8207  -1.2772 C.ar           1 <1>                0.0000
     34 C34         -1.7978   0.1365  -1.2834 C.ar           1 <1>                0.0000
     35 C35         -2.8859   0.6541  -1.9551 C.ar           1 <1>                0.0000
     36 C36         -2.7717   1.8708  -2.6296 C.ar           1 <1>                0.0000
     37 C37         -1.5556   2.5558  -2.6194 C.ar           1 <1>                0.0000
     38 C38         -0.4769   2.0299  -1.9390 C.ar           1 <1>                0.0000
     39 C39         -3.9335   2.4312  -3.3520 C.2            1 <1>                0.0000
     40 O40         -4.9912   1.8322  -3.3595 O.2            1 <1>                0.0000
     41 N41         -3.8199   3.6062  -4.0022 N.am           1 <1>                0.0000
     42 C42         -4.9712   4.1615  -4.7181 C.3            1 <1>                0.0000
     43 C43         -4.8228   5.6808  -4.8220 C.3            1 <1>                0.0000
     44 C44         -4.8813   6.2959  -3.4223 C.3            1 <1>                0.0000
     45 C45         -4.7351   7.7922  -3.5247 C.2            1 <1>                0.0000
     46 O46         -4.5969   8.3180  -4.6160 O.co2          1 <1>                0.0000
     47 O47         -4.7551   8.4771  -2.5162 O.co2          1 <1>                0.0000
     48 C48         -5.0368   3.5674  -6.1015 C.2            1 <1>                0.0000
     49 O49         -4.1995   2.7554  -6.4565 O.co2          1 <1>                0.0000
     50 O50         -5.9272   3.8988  -6.8656 O.co2          1 <1>                0.0000
     51 C51          1.7292   2.9780   0.9111 C.ar           1 <1>                0.0000
     52 C52          1.7251   4.3411   0.9190 C.ar           1 <1>                0.0000
     53 C53          0.5041   5.0295   0.9297 C.ar           1 <1>                0.0000
     54 N54          0.4454   6.3692   0.9319 N.ar           1 <1>                0.0000
     55 H55          0.0940   8.8647   0.9487 H              1 <1>                0.0000
     56 H56         -1.5859   8.8419   0.9605 H              1 <1>                0.0000
     57 H57         -3.4616   4.1746   0.0605 H              1 <1>                0.0000
     58 H58         -1.5841   2.3248   0.9248 H              1 <1>                0.0000
     59 H59          1.4844   0.4100   1.4116 H              1 <1>                0.0000
     60 H60         -0.2948   0.3587   1.4203 H              1 <1>                0.0000
     61 H61          1.8685   0.3825  -2.1054 H              1 <1>                0.0000
     62 H62         -0.4523  -1.5938  -0.1419 H              1 <1>                0.0000
     63 H63          0.6019  -1.6406  -1.5753 H              1 <1>                0.0000
     64 H64          0.5564  -3.6149   0.6659 H              1 <1>                0.0000
     65 H65          1.6107  -3.6616  -0.7675 H              1 <1>                0.0000
     66 H66          2.1322  -5.7975   0.7908 H              1 <1>                0.0000
     67 H67          4.6178  -5.0053   2.2062 H              1 <1>                0.0000
     68 H68          5.1657  -6.6276   4.2300 H              1 <1>                0.0000
     69 H69          2.8097  -8.5700   4.4158 H              1 <1>                0.0000
     70 H70          4.4219  -8.8690   5.1085 H              1 <1>                0.0000
     71 H71          5.8269  -8.1707   2.5910 H              1 <1>                0.0000
     72 H72          4.2460  -9.7059   1.6694 H              1 <1>                0.0000
     73 H73          5.3492  -6.7547   0.8282 H              1 <1>                0.0000
     74 H74          3.2451  -7.0569  -0.2639 H              1 <1>                0.0000
     75 H75         -1.8848  -0.8050  -0.7614 H              1 <1>                0.0000
     76 H76         -3.8240   0.1189  -1.9595 H              1 <1>                0.0000
     77 H77         -1.4607   3.4977  -3.1393 H              1 <1>                0.0000
     78 H78          0.4646   2.5590  -1.9303 H              1 <1>                0.0000
     79 H79         -2.9759   4.0842  -3.9963 H              1 <1>                0.0000
     80 H80         -5.8861   3.9221  -4.1761 H              1 <1>                0.0000
     81 H81         -3.8657   5.9215  -5.2849 H              1 <1>                0.0000
     82 H82         -5.6323   6.0841  -5.4303 H              1 <1>                0.0000
     83 H83         -5.8383   6.0551  -2.9594 H              1 <1>                0.0000
     84 H84         -4.0718   5.8925  -2.8140 H              1 <1>                0.0000
     85 H85          2.6709   2.4492   0.9033 H              1 <1>                0.0000
     86 H86          2.6568   4.8873   0.9168 H              1 <1>                0.0000
@<TRIPOS>BOND
    1    1    2 1     
    2    1   55 1     
    3    1   56 1     
    4    2   54 ar    
    5    2    3 ar    
    6    3    4 ar    
    7    4    5 1     
    8    4    6 ar    
    9    5   57 1     
   10    6   53 ar    
   11    6    7 ar    
   12    7    8 ar    
   13    7   58 1     
   14    8    9 1     
   15    8   51 ar    
   16    9   10 1     
   17    9   59 1     
   18    9   60 1     
   19   10   11 1     
   20   10   12 1     
   21   10   33 1     
   22   11   61 1     
   23   12   13 1     
   24   12   62 1     
   25   12   63 1     
   26   13   14 1     
   27   13   15 1     
   28   13   16 1     
   29   16   17 1     
   30   16   64 1     
   31   16   65 1     
   32   17   18 2     
   33   17   19 am    
   34   19   20 1     
   35   19   66 1     
   36   20   31 1     
   37   20   21 1     
   38   20   67 1     
   39   21   22 1     
   40   22   23 1     
   41   22   29 1     
   42   22   68 1     
   43   23   24 1     
   44   23   69 1     
   45   23   70 1     
   46   24   25 1     
   47   25   26 ar    
   48   25   27 ar    
   49   25   28 ar    
   50   29   30 1     
   51   29   31 1     
   52   29   71 1     
   53   30   72 1     
   54   31   32 1     
   55   31   73 1     
   56   32   74 1     
   57   33   38 ar    
   58   33   34 ar    
   59   34   35 ar    
   60   34   75 1     
   61   35   36 ar    
   62   35   76 1     
   63   36   37 ar    
   64   36   39 1     
   65   37   38 ar    
   66   37   77 1     
   67   38   78 1     
   68   39   40 2     
   69   39   41 am    
   70   41   42 1     
   71   41   79 1     
   72   42   43 1     
   73   42   48 1     
   74   42   80 1     
   75   43   44 1     
   76   43   81 1     
   77   43   82 1     
   78   44   45 1     
   79   44   83 1     
   80   44   84 1     
   81   45   46 ar    
   82   45   47 ar    
   83   48   49 ar    
   84   48   50 ar    
   85   51   52 ar    
   86   51   85 1     
   87   52   53 ar    
   88   52   86 1     
   89   53   54 ar    
@<TRIPOS>SUBSTRUCTURE
      1 ****           1
@<TRIPOS>SET
DONOR_HYDROGENS      STATIC     ATOMS    <user>   **** ""
10 55 56 57 61 14 15 66 72 74 79
ATOM$RED        STATIC     ATOMS    COLORGROUP SYSTEM
10 55 56 57 61 14 15 66 72 74 79
