#       Name:                13F
#       Creating user name   gbret
#       Creation time:       Thu Sep  8 19:40:33 2016


#       File generated by GOLD software.
#

@<TRIPOS>MOLECULE
13F
    37    39     1
SMALL
NO_CHARGES


@<TRIPOS>ATOM
      1 C1           3.8309   3.0057  -0.7038 C.3            1 <1>                0.0000
      2 N2           3.2745   1.6644  -0.5099 N.am           1 <1>                0.0000
      3 C3           2.0221   1.4783   0.2426 C.3            1 <1>                0.0000
      4 C4           1.5201   0.0610   0.3945 C.ar           1 <1>                0.0000
      5 C5           0.3597  -0.2172   1.0794 C.ar           1 <1>                0.0000
      6 C6          -0.0699  -1.5282   1.1979 C.ar           1 <1>                0.0000
      7 C7           0.6661  -2.5520   0.6297 C.ar           1 <1>                0.0000
      8 C8           1.8313  -2.2751  -0.0584 C.ar           1 <1>                0.0000
      9 C9           2.2662  -0.9621  -0.1804 C.ar           1 <1>                0.0000
     10 N10          3.4402  -0.6617  -0.8719 N.am           1 <1>                0.0000
     11 C11          3.8981   0.5878  -1.0218 C.2            1 <1>                0.0000
     12 O12          4.9309   0.7562  -1.6408 O.2            1 <1>                0.0000
     13 S13         -1.5549  -1.8923   2.0735 S.o2           1 <1>                0.0000
     14 O14         -1.3952  -3.1991   2.6084 O.2            1 <1>                0.0000
     15 O15         -1.8376  -0.7536   2.8752 O.2            1 <1>                0.0000
     16 N16         -2.7721  -1.9905   0.9549 N.pl3          1 <1>                0.0000
     17 C17         -3.1298  -0.8635   0.2114 C.ar           1 <1>                0.0000
     18 C18         -3.8601   0.1586   0.8044 C.ar           1 <1>                0.0000
     19 C19         -4.2118   1.2718   0.0665 C.ar           1 <1>                0.0000
     20 C20         -3.8381   1.3694  -1.2614 C.ar           1 <1>                0.0000
     21 C21         -3.1110   0.3537  -1.8547 C.ar           1 <1>                0.0000
     22 C22         -2.7512  -0.7596  -1.1210 C.ar           1 <1>                0.0000
     23 H23          4.7504   2.9371  -1.2851 H              1 <1>                0.0000
     24 H24          3.1094   3.6248  -1.2369 H              1 <1>                0.0000
     25 H25          4.0469   3.4531   0.2664 H              1 <1>                0.0000
     26 H26          2.1647   1.8932   1.2404 H              1 <1>                0.0000
     27 H27          1.2436   2.0597  -0.2513 H              1 <1>                0.0000
     28 H28         -0.2134   0.5834   1.5230 H              1 <1>                0.0000
     29 H29          0.3282  -3.5734   0.7248 H              1 <1>                0.0000
     30 H30          2.4025  -3.0779  -0.5007 H              1 <1>                0.0000
     31 H31          3.9456  -1.3904  -1.2649 H              1 <1>                0.0000
     32 H32         -3.2366  -2.8306   0.8161 H              1 <1>                0.0000
     33 H33         -4.1529   0.0827   1.8412 H              1 <1>                0.0000
     34 H34         -4.7795   2.0668   0.5268 H              1 <1>                0.0000
     35 H35         -4.1150   2.2406  -1.8364 H              1 <1>                0.0000
     36 H36         -2.8208   0.4331  -2.8920 H              1 <1>                0.0000
     37 H37         -2.1831  -1.5524  -1.5850 H              1 <1>                0.0000
@<TRIPOS>BOND
    1    1    2 1     
    2    1   23 1     
    3    1   24 1     
    4    1   25 1     
    5    2   11 am    
    6    2    3 1     
    7    3    4 1     
    8    3   26 1     
    9    3   27 1     
   10    4    9 ar    
   11    4    5 ar    
   12    5    6 ar    
   13    5   28 1     
   14    6    7 ar    
   15    6   13 1     
   16    7    8 ar    
   17    7   29 1     
   18    8    9 ar    
   19    8   30 1     
   20    9   10 1     
   21   10   11 am    
   22   10   31 1     
   23   11   12 2     
   24   13   14 2     
   25   13   15 2     
   26   13   16 1     
   27   16   17 1     
   28   16   32 1     
   29   17   22 ar    
   30   17   18 ar    
   31   18   19 ar    
   32   18   33 1     
   33   19   20 ar    
   34   19   34 1     
   35   20   21 ar    
   36   20   35 1     
   37   21   22 ar    
   38   21   36 1     
   39   22   37 1     
@<TRIPOS>SUBSTRUCTURE
      1 ****           1
@<TRIPOS>SET
DONOR_HYDROGENS      STATIC     ATOMS    <user>   **** ""
2 31 32
ATOM$RED        STATIC     ATOMS    COLORGROUP SYSTEM
2 31 32
