#       Name:                166
#       Creating user name   gbret
#       Creation time:       Thu Sep  8 19:46:59 2016


#       File generated by GOLD software.
#

@<TRIPOS>MOLECULE
166
    54    56     1
SMALL
NO_CHARGES


@<TRIPOS>ATOM
      1 N1           4.6516   0.3785   3.4269 N.pl3          1 <1>                0.0000
      2 C2           4.3787  -0.8827   3.1408 C.2            1 <1>                0.0000
      3 N3           5.3533  -1.7101   2.8055 N.pl3          1 <1>                0.0000
      4 H4           6.2689  -1.3919   2.7694 H              1 <1>                0.0000
      5 H5           5.1529  -2.6358   2.5956 H              1 <1>                0.0000
      6 C6           2.9562  -1.3773   3.1971 C.3            1 <1>                0.0000
      7 C7           2.2973  -1.1916   1.8288 C.3            1 <1>                0.0000
      8 C8           0.8531  -1.6938   1.8859 C.3            1 <1>                0.0000
      9 C9           0.1942  -1.5081   0.5176 C.3            1 <1>                0.0000
     10 C10         -1.2500  -2.0103   0.5747 C.3            1 <1>                0.0000
     11 C11         -1.8323  -2.0502  -0.8396 C.3            1 <1>                0.0000
     12 C12         -3.2484  -2.6637  -0.8186 C.3            1 <1>                0.0000
     13 O13         -3.8739  -2.4540   0.4490 O.3            1 <1>                0.0000
     14 C14         -3.9711  -1.8674  -1.9254 C.3            1 <1>                0.0000
     15 C15         -3.2472  -0.5395  -1.9958 C.ar           1 <1>                0.0000
     16 C16         -3.6368   0.6640  -2.5628 C.ar           1 <1>                0.0000
     17 C17         -2.8049   1.7620  -2.5087 C.ar           1 <1>                0.0000
     18 C18         -1.5648   1.6613  -1.8808 C.ar           1 <1>                0.0000
     19 C19         -1.1761   0.4512  -1.3127 C.ar           1 <1>                0.0000
     20 C20         -2.0172  -0.6448  -1.3713 C.ar           1 <1>                0.0000
     21 C21         -0.6631   2.8378  -1.8185 C.ar           1 <1>                0.0000
     22 C22          0.5791   2.7332  -1.1951 C.ar           1 <1>                0.0000
     23 C23          1.4154   3.8284  -1.1391 C.ar           1 <1>                0.0000
     24 C24          1.0210   5.0342  -1.7030 C.ar           1 <1>                0.0000
     25 O25          1.8470   6.1115  -1.6464 O.3            1 <1>                0.0000
     26 C26         -0.2155   5.1412  -2.3250 C.ar           1 <1>                0.0000
     27 C27         -1.0541   4.0482  -2.3883 C.ar           1 <1>                0.0000
     28 C28         -1.2771  -3.3952   1.1683 C.2            1 <1>                0.0000
     29 O29         -1.9054  -3.6078   2.1913 O.co2          1 <1>                0.0000
     30 O30         -0.6707  -4.3031   0.6256 O.co2          1 <1>                0.0000
     31 H31          5.5671   0.6969   3.3908 H              1 <1>                0.0000
     32 H32          3.9358   0.9867   3.6692 H              1 <1>                0.0000
     33 H33          2.9493  -2.4343   3.4632 H              1 <1>                0.0000
     34 H34          2.4038  -0.8104   3.9464 H              1 <1>                0.0000
     35 H35          2.3041  -0.1346   1.5627 H              1 <1>                0.0000
     36 H36          2.8498  -1.7585   1.0795 H              1 <1>                0.0000
     37 H37          0.8462  -2.7508   2.1520 H              1 <1>                0.0000
     38 H38          0.3007  -1.1269   2.6352 H              1 <1>                0.0000
     39 H39          0.2010  -0.4511   0.2515 H              1 <1>                0.0000
     40 H40          0.7466  -2.0750  -0.2317 H              1 <1>                0.0000
     41 H41         -1.8442  -1.3381   1.1935 H              1 <1>                0.0000
     42 H42         -1.1806  -2.6219  -1.5003 H              1 <1>                0.0000
     43 H43         -3.2139  -3.7259  -1.0608 H              1 <1>                0.0000
     44 H44         -4.7661  -2.8213   0.5128 H              1 <1>                0.0000
     45 H45         -3.8952  -2.3905  -2.8787 H              1 <1>                0.0000
     46 H46         -5.0171  -1.7143  -1.6595 H              1 <1>                0.0000
     47 H47         -4.5978   0.7420  -3.0493 H              1 <1>                0.0000
     48 H48         -3.1132   2.6973  -2.9520 H              1 <1>                0.0000
     49 H49         -0.2159   0.3683  -0.8254 H              1 <1>                0.0000
     50 H50          0.8864   1.7956  -0.7560 H              1 <1>                0.0000
     51 H51          2.3779   3.7481  -0.6559 H              1 <1>                0.0000
     52 H52          2.4512   6.1838  -2.3978 H              1 <1>                0.0000
     53 H53         -0.5195   6.0804  -2.7631 H              1 <1>                0.0000
     54 H54         -2.0159   4.1320  -2.8724 H              1 <1>                0.0000
@<TRIPOS>BOND
    1    1    2 2     
    2    1   31 1     
    3    1   32 1     
    4    2    3 1     
    5    2    6 1     
    6    3    4 1     
    7    3    5 1     
    8    6    7 1     
    9    6   33 1     
   10    6   34 1     
   11    7    8 1     
   12    7   35 1     
   13    7   36 1     
   14    8    9 1     
   15    8   37 1     
   16    8   38 1     
   17    9   10 1     
   18    9   39 1     
   19    9   40 1     
   20   10   11 1     
   21   10   28 1     
   22   10   41 1     
   23   11   20 1     
   24   11   12 1     
   25   11   42 1     
   26   12   13 1     
   27   12   14 1     
   28   12   43 1     
   29   13   44 1     
   30   14   15 1     
   31   14   45 1     
   32   14   46 1     
   33   15   20 ar    
   34   15   16 ar    
   35   16   17 ar    
   36   16   47 1     
   37   17   18 ar    
   38   17   48 1     
   39   18   19 ar    
   40   18   21 1     
   41   19   20 ar    
   42   19   49 1     
   43   21   27 ar    
   44   21   22 ar    
   45   22   23 ar    
   46   22   50 1     
   47   23   24 ar    
   48   23   51 1     
   49   24   25 1     
   50   24   26 ar    
   51   25   52 1     
   52   26   27 ar    
   53   26   53 1     
   54   27   54 1     
   55   28   29 ar    
   56   28   30 ar    
@<TRIPOS>SUBSTRUCTURE
      1 ****           1
@<TRIPOS>SET
DONOR_HYDROGENS      STATIC     ATOMS    <user>   **** ""
6 31 32 4 5 44 52
ATOM$RED        STATIC     ATOMS    COLORGROUP SYSTEM
6 31 32 4 5 44 52
