#       Name:                16B
#       Creating user name   gbret
#       Creation time:       Thu Sep  8 19:47:22 2016


#       File generated by GOLD software.
#

@<TRIPOS>MOLECULE
16B
    33    34     1
SMALL
NO_CHARGES


@<TRIPOS>ATOM
      1 O1           1.1747   2.5804  -1.5487 O.3            1 <1>                0.0000
      2 C2           1.1941   1.1515  -1.5566 C.3            1 <1>                0.0000
      3 C3           1.7468   0.5919  -0.2174 C.3            1 <1>                0.0000
      4 O4           2.7622   1.4473   0.3108 O.3            1 <1>                0.0000
      5 C5           0.4940   0.6042   0.6847 C.3            1 <1>                0.0000
      6 O6          -0.6551   0.6169  -0.1704 O.3            1 <1>                0.0000
      7 C7          -0.2435   0.5735  -1.5460 C.3            1 <1>                0.0000
      8 C8          -1.1695   1.4371  -2.4049 C.3            1 <1>                0.0000
      9 O9          -2.4769   0.8606  -2.4234 O.3            1 <1>                0.0000
     10 P10         -3.7092   1.5078  -3.2326 P.3            1 <1>                0.0000
     11 O11         -3.4062   1.4628  -4.7690 O.co2          1 <1>                0.0000
     12 O12         -5.0147   0.6949  -2.9337 O.co2          1 <1>                0.0000
     13 O13         -3.9057   2.9955  -2.7824 O.co2          1 <1>                0.0000
     14 N14          0.4749  -0.5957   1.5250 N.am           1 <1>                0.0000
     15 C15          0.5821  -0.4773   2.8783 C.2            1 <1>                0.0000
     16 C16          0.5627  -1.5936   3.6443 C.2            1 <1>                0.0000
     17 C17          0.4317  -2.8499   3.0176 C.2            1 <1>                0.0000
     18 N18          0.4087  -4.0002   3.7718 N.pl3          1 <1>                0.0000
     19 O19          0.2771  -5.2597   3.1382 O.2            1 <1>                0.0000
     20 N20          0.3304  -2.9163   1.6965 N.2            1 <1>                0.0000
     21 C21          0.3460  -1.8087   0.9569 C.2            1 <1>                0.0000
     22 O22          0.2509  -1.8960  -0.2561 O.2            1 <1>                0.0000
     23 H23          2.0526   2.9857  -1.5549 H              1 <1>                0.0000
     24 H24          1.7632   0.7735  -2.4058 H              1 <1>                0.0000
     25 H25          2.1250  -0.4221  -0.3474 H              1 <1>                0.0000
     26 H26          3.5345   1.5422  -0.2635 H              1 <1>                0.0000
     27 H27          0.4984   1.4959   1.3114 H              1 <1>                0.0000
     28 H28         -0.2405  -0.4547  -1.9077 H              1 <1>                0.0000
     29 H29         -1.2213   2.4419  -1.9858 H              1 <1>                0.0000
     30 H30         -0.7800   1.4871  -3.4217 H              1 <1>                0.0000
     31 H31          0.6818   0.4964   3.3348 H              1 <1>                0.0000
     32 H32          0.6466  -1.5229   4.7188 H              1 <1>                0.0000
     33 H33          0.4827  -3.9484   4.7376 H              1 <1>                0.0000
@<TRIPOS>BOND
    1    1    2 1     
    2    1   23 1     
    3    2    7 1     
    4    2    3 1     
    5    2   24 1     
    6    3    4 1     
    7    3    5 1     
    8    3   25 1     
    9    4   26 1     
   10    5    6 1     
   11    5   14 1     
   12    5   27 1     
   13    6    7 1     
   14    7    8 1     
   15    7   28 1     
   16    8    9 1     
   17    8   29 1     
   18    8   30 1     
   19    9   10 1     
   20   10   11 ar    
   21   10   12 ar    
   22   10   13 ar    
   23   14   21 am    
   24   14   15 1     
   25   15   16 2     
   26   15   31 1     
   27   16   17 1     
   28   16   32 1     
   29   17   18 1     
   30   17   20 2     
   31   18   19 1     
   32   18   33 1     
   33   20   21 1     
   34   21   22 2     
@<TRIPOS>SUBSTRUCTURE
      1 ****           1
@<TRIPOS>SET
DONOR_HYDROGENS      STATIC     ATOMS    <user>   **** ""
3 23 26 33
ATOM$RED        STATIC     ATOMS    COLORGROUP SYSTEM
3 23 26 33
