#       Name:                19U
#       Creating user name   gbret
#       Creation time:       Thu Sep  8 19:55:52 2016


#       File generated by GOLD software.
#

@<TRIPOS>MOLECULE
19U
    45    46     1
SMALL
NO_CHARGES


@<TRIPOS>ATOM
      1 C1          -0.1073   5.5879   2.4560 C.3            1 <1>                0.0000
      2 C2          -0.0865   4.0580   2.4476 C.3            1 <1>                0.0000
      3 C3           0.6296   3.5646   1.1888 C.3            1 <1>                0.0000
      4 N4           2.0402   3.9721   1.2364 N.4            1 <1>                0.0000
      5 H5           2.4788   3.5712   2.0518 H              1 <1>                0.0000
      6 H6           2.5124   3.6467   0.4062 H              1 <1>                0.0000
      7 H7           2.0981   4.9784   1.2837 H              1 <1>                0.0000
      8 C8           0.5430   2.0618   1.1181 C.2            1 <1>                0.0000
      9 O9           1.4860   1.3830   1.4659 O.2            1 <1>                0.0000
     10 N10         -0.5823   1.4720   0.6683 N.am           1 <1>                0.0000
     11 C11         -1.7954   2.1730   0.2096 C.3            1 <1>                0.0000
     12 C12         -2.4968   1.1711  -0.7411 C.3            1 <1>                0.0000
     13 C13         -2.2168  -0.1799  -0.0315 C.3            1 <1>                0.0000
     14 C14         -0.8010   0.0232   0.5478 C.3            1 <1>                0.0000
     15 C15          0.2230  -0.5814  -0.3779 C.2            1 <1>                0.0000
     16 O16          1.0699   0.1215  -0.8874 O.2            1 <1>                0.0000
     17 N17          0.1978  -1.9033  -0.6395 N.am           1 <1>                0.0000
     18 C18          1.1933  -2.4911  -1.5394 C.3            1 <1>                0.0000
     19 C19          0.9465  -3.9726  -1.6625 C.ar           1 <1>                0.0000
     20 C20          1.5541  -4.8499  -0.7835 C.ar           1 <1>                0.0000
     21 C21          1.3279  -6.2089  -0.8956 C.ar           1 <1>                0.0000
     22 C22          0.4943  -6.6916  -1.8870 C.ar           1 <1>                0.0000
     23 C23         -0.1140  -5.8143  -2.7668 C.ar           1 <1>                0.0000
     24 Cl24        -1.1615  -6.4198  -4.0117 Cl             1 <1>                0.0000
     25 C25          0.1084  -4.4535  -2.6505 C.ar           1 <1>                0.0000
     26 H26          0.9153   5.9652   2.4483 H              1 <1>                0.0000
     27 H27         -0.6345   5.9489   1.5730 H              1 <1>                0.0000
     28 H28         -0.6175   5.9394   3.3528 H              1 <1>                0.0000
     29 H29          0.4407   3.6970   3.3307 H              1 <1>                0.0000
     30 H30         -1.1091   3.6807   2.4554 H              1 <1>                0.0000
     31 H31          0.1558   3.9977   0.3079 H              1 <1>                0.0000
     32 H32         -2.4406   2.4080   1.0561 H              1 <1>                0.0000
     33 H33         -1.5275   3.0825  -0.3282 H              1 <1>                0.0000
     34 H34         -3.5672   1.3690  -0.7964 H              1 <1>                0.0000
     35 H35         -2.0454   1.1923  -1.7330 H              1 <1>                0.0000
     36 H36         -2.9414  -0.3552   0.7638 H              1 <1>                0.0000
     37 H37         -2.2235  -1.0008  -0.7485 H              1 <1>                0.0000
     38 H38         -0.7333  -0.4400   1.5322 H              1 <1>                0.0000
     39 H39         -0.4795  -2.4655  -0.2320 H              1 <1>                0.0000
     40 H40          1.1138  -2.0265  -2.5222 H              1 <1>                0.0000
     41 H41          2.1920  -2.3213  -1.1369 H              1 <1>                0.0000
     42 H42          2.2061  -4.4733  -0.0092 H              1 <1>                0.0000
     43 H43          1.8028  -6.8937  -0.2087 H              1 <1>                0.0000
     44 H44          0.3181  -7.7535  -1.9749 H              1 <1>                0.0000
     45 H45         -0.3661  -3.7681  -3.3371 H              1 <1>                0.0000
@<TRIPOS>BOND
    1    1    2 1     
    2    1   26 1     
    3    1   27 1     
    4    1   28 1     
    5    2    3 1     
    6    2   29 1     
    7    2   30 1     
    8    3    4 1     
    9    3    8 1     
   10    3   31 1     
   11    4    5 1     
   12    4    6 1     
   13    4    7 1     
   14    8    9 2     
   15    8   10 am    
   16   10   14 1     
   17   10   11 1     
   18   11   12 1     
   19   11   32 1     
   20   11   33 1     
   21   12   13 1     
   22   12   34 1     
   23   12   35 1     
   24   13   14 1     
   25   13   36 1     
   26   13   37 1     
   27   14   15 1     
   28   14   38 1     
   29   15   16 2     
   30   15   17 am    
   31   17   18 1     
   32   17   39 1     
   33   18   19 1     
   34   18   40 1     
   35   18   41 1     
   36   19   25 ar    
   37   19   20 ar    
   38   20   21 ar    
   39   20   42 1     
   40   21   22 ar    
   41   21   43 1     
   42   22   23 ar    
   43   22   44 1     
   44   23   24 1     
   45   23   25 ar    
   46   25   45 1     
@<TRIPOS>SUBSTRUCTURE
      1 ****           1
@<TRIPOS>SET
DONOR_HYDROGENS      STATIC     ATOMS    <user>   **** ""
4 5 6 7 39
ATOM$RED        STATIC     ATOMS    COLORGROUP SYSTEM
4 5 6 7 39
