#       Name:                1GR
#       Creating user name   gbret
#       Creation time:       Thu Sep  8 20:12:06 2016


#       File generated by GOLD software.
#

@<TRIPOS>MOLECULE
1GR
    42    44     1
SMALL
NO_CHARGES


@<TRIPOS>ATOM
      1 C1           0.6782   1.3067  -3.0789 C.3            1 <1>                0.0000
      2 C2           0.5912  -0.2117  -3.2453 C.3            1 <1>                0.0000
      3 C3           1.2377  -0.6173  -4.5714 C.3            1 <1>                0.0000
      4 C4           1.3259  -0.8944  -2.0899 C.3            1 <1>                0.0000
      5 N5           0.6352  -0.6022  -0.8314 N.pl3          1 <1>                0.0000
      6 N6           0.7965   0.5601  -0.0706 N.2            1 <1>                0.0000
      7 C7           0.0345   0.5069   0.9949 C.2            1 <1>                0.0000
      8 C8          -0.0758   1.5460   2.0453 C.ar           1 <1>                0.0000
      9 C9          -1.3302   1.9521   2.4980 C.ar           1 <1>                0.0000
     10 C10         -1.4299   2.9190   3.4761 C.ar           1 <1>                0.0000
     11 C11         -0.2832   3.4906   4.0126 C.ar           1 <1>                0.0000
     12 O12         -0.3882   4.4426   4.9765 O.3            1 <1>                0.0000
     13 C13          0.9687   3.0922   3.5679 C.ar           1 <1>                0.0000
     14 C14          1.0788   2.1184   2.5901 C.ar           1 <1>                0.0000
     15 O15          2.3042   1.7271   2.1534 O.3            1 <1>                0.0000
     16 C16         -0.6893  -0.7683   0.9575 C.ar           1 <1>                0.0000
     17 C17         -1.6241  -1.3782   1.7978 C.ar           1 <1>                0.0000
     18 C18         -2.1238  -2.6068   1.4735 C.ar           1 <1>                0.0000
     19 C19         -1.7107  -3.2552   0.3164 C.ar           1 <1>                0.0000
     20 C20         -0.7975  -2.6786  -0.5201 C.ar           1 <1>                0.0000
     21 C21         -0.2758  -1.4228  -0.2172 C.ar           1 <1>                0.0000
     22 C22         -0.3598  -3.3966  -1.7706 C.3            1 <1>                0.0000
     23 F23         -1.1124  -4.5659  -1.9246 F              1 <1>                0.0000
     24 F24         -0.5572  -2.5657  -2.8787 F              1 <1>                0.0000
     25 F25          0.9963  -3.7248  -1.6695 F              1 <1>                0.0000
     26 H26          1.7242   1.6132  -3.0819 H              1 <1>                0.0000
     27 H27          0.1548   1.7931  -3.9021 H              1 <1>                0.0000
     28 H28          0.2176   1.5957  -2.1342 H              1 <1>                0.0000
     29 H29         -0.4549  -0.5182  -3.2424 H              1 <1>                0.0000
     30 H30          2.2837  -0.3108  -4.5744 H              1 <1>                0.0000
     31 H31          1.1756  -1.6991  -4.6900 H              1 <1>                0.0000
     32 H32          0.7142  -0.1310  -5.3946 H              1 <1>                0.0000
     33 H33          1.3406  -1.9718  -2.2547 H              1 <1>                0.0000
     34 H34          2.3485  -0.5207  -2.0383 H              1 <1>                0.0000
     35 H35         -2.2236   1.5099   2.0826 H              1 <1>                0.0000
     36 H36         -2.4023   3.2331   3.8257 H              1 <1>                0.0000
     37 H37         -0.3969   4.0910   5.8773 H              1 <1>                0.0000
     38 H38          1.8580   3.5389   3.9874 H              1 <1>                0.0000
     39 H39          2.6822   0.9894   2.6514 H              1 <1>                0.0000
     40 H40         -1.9495  -0.8805   2.6994 H              1 <1>                0.0000
     41 H41         -2.8465  -3.0789   2.1226 H              1 <1>                0.0000
     42 H42         -2.1161  -4.2268   0.0755 H              1 <1>                0.0000
@<TRIPOS>BOND
    1    1    2 1     
    2    1   26 1     
    3    1   27 1     
    4    1   28 1     
    5    2    3 1     
    6    2    4 1     
    7    2   29 1     
    8    3   30 1     
    9    3   31 1     
   10    3   32 1     
   11    4    5 1     
   12    4   33 1     
   13    4   34 1     
   14    5   21 1     
   15    5    6 1     
   16    6    7 2     
   17    7    8 1     
   18    7   16 1     
   19    8   14 ar    
   20    8    9 ar    
   21    9   10 ar    
   22    9   35 1     
   23   10   11 ar    
   24   10   36 1     
   25   11   12 1     
   26   11   13 ar    
   27   12   37 1     
   28   13   14 ar    
   29   13   38 1     
   30   14   15 1     
   31   15   39 1     
   32   16   21 ar    
   33   16   17 ar    
   34   17   18 ar    
   35   17   40 1     
   36   18   19 ar    
   37   18   41 1     
   38   19   20 ar    
   39   19   42 1     
   40   20   21 ar    
   41   20   22 1     
   42   22   23 1     
   43   22   24 1     
   44   22   25 1     
@<TRIPOS>SUBSTRUCTURE
      1 ****           1
@<TRIPOS>SET
DONOR_HYDROGENS      STATIC     ATOMS    <user>   **** ""
2 37 39
ATOM$RED        STATIC     ATOMS    COLORGROUP SYSTEM
2 37 39
