#       Name:                1JG
#       Creating user name   gbret
#       Creation time:       Thu Sep  8 20:16:17 2016


#       File generated by GOLD software.
#

@<TRIPOS>MOLECULE
1JG
    26    27     1
SMALL
NO_CHARGES


@<TRIPOS>ATOM
      1 O1           1.3418  -3.5695  -1.2339 O.co2          1 <1>                0.0000
      2 C2           1.2253  -2.3540  -1.3137 C.2            1 <1>                0.0000
      3 O3           2.2162  -1.6533  -1.4698 O.co2          1 <1>                0.0000
      4 C4          -0.1055  -1.7363  -1.2282 C.ar           1 <1>                0.0000
      5 C5          -1.2420  -2.5335  -1.0498 C.ar           1 <1>                0.0000
      6 C6          -2.4851  -1.9489  -0.9706 C.ar           1 <1>                0.0000
      7 C7          -2.6198  -0.5705  -1.0672 C.ar           1 <1>                0.0000
      8 Cl8         -4.1955   0.1511  -0.9658 Cl             1 <1>                0.0000
      9 C9          -1.5087   0.2303  -1.2429 C.ar           1 <1>                0.0000
     10 C10         -0.2446  -0.3405  -1.3194 C.ar           1 <1>                0.0000
     11 N11          0.8733   0.4617  -1.4954 N.pl3          1 <1>                0.0000
     12 S12          0.9418   1.9546  -0.7820 S.o2           1 <1>                0.0000
     13 O13          2.2480   2.4572  -1.0278 O.2            1 <1>                0.0000
     14 O14         -0.2406   2.6399  -1.1711 O.2            1 <1>                0.0000
     15 C15          0.8234   1.7068   0.9585 C.2            1 <1>                0.0000
     16 C16          1.8573   1.5243   1.7809 C.2            1 <1>                0.0000
     17 C17          1.5200   1.3496   3.1123 C.2            1 <1>                0.0000
     18 C18          0.2111   1.3903   3.3704 C.2            1 <1>                0.0000
     19 Br19        -0.5698   1.1867   5.0805 Br             1 <1>                0.0000
     20 S20         -0.6757   1.6699   1.8774 S.3            1 <1>                0.0000
     21 H21         -1.1434  -3.6064  -0.9747 H              1 <1>                0.0000
     22 H22         -3.3608  -2.5658  -0.8329 H              1 <1>                0.0000
     23 H23         -1.6223   1.3017  -1.3171 H              1 <1>                0.0000
     24 H24          1.6149   0.1482  -2.0364 H              1 <1>                0.0000
     25 H25          2.8802   1.5133   1.4345 H              1 <1>                0.0000
     26 H26          2.2597   1.1919   3.8833 H              1 <1>                0.0000
@<TRIPOS>BOND
    1    1    2 ar    
    2    2    3 ar    
    3    2    4 1     
    4    4   10 ar    
    5    4    5 ar    
    6    5    6 ar    
    7    5   21 1     
    8    6    7 ar    
    9    6   22 1     
   10    7    8 1     
   11    7    9 ar    
   12    9   10 ar    
   13    9   23 1     
   14   10   11 1     
   15   11   12 1     
   16   11   24 1     
   17   12   13 2     
   18   12   14 2     
   19   12   15 1     
   20   15   20 1     
   21   15   16 2     
   22   16   17 1     
   23   16   25 1     
   24   17   18 2     
   25   17   26 1     
   26   18   19 1     
   27   18   20 1     
@<TRIPOS>SUBSTRUCTURE
      1 ****           1
@<TRIPOS>SET
DONOR_HYDROGENS      STATIC     ATOMS    <user>   **** ""
1 24
ATOM$RED        STATIC     ATOMS    COLORGROUP SYSTEM
1 24
