#       Name:                1JN
#       Creating user name   gbret
#       Creation time:       Thu Sep  8 20:16:40 2016


#       File generated by GOLD software.
#

@<TRIPOS>MOLECULE
1JN
    42    45     1
SMALL
NO_CHARGES


@<TRIPOS>ATOM
      1 C1          -0.2287   4.6809  -3.6466 C.3            1 <1>                0.0000
      2 O2          -0.2093   3.2520  -3.6545 O.3            1 <1>                0.0000
      3 C3           0.4144   2.6377  -2.6150 C.ar           1 <1>                0.0000
      4 C4           0.9909   3.3946  -1.6051 C.ar           1 <1>                0.0000
      5 C5           1.6239   2.7679  -0.5495 C.ar           1 <1>                0.0000
      6 C6           1.6833   1.3872  -0.4986 C.ar           1 <1>                0.0000
      7 C7           2.3745   0.7060   0.6544 C.3            1 <1>                0.0000
      8 N8           1.4075   0.4598   1.7270 N.pl3          1 <1>                0.0000
      9 C9           1.1741   1.2606   2.8016 C.2            1 <1>                0.0000
     10 N10          0.2501   0.7397   3.5551 N.2            1 <1>                0.0000
     11 C11         -0.1728  -0.4321   3.0147 C.ar           1 <1>                0.0000
     12 C12         -1.1223  -1.3823   3.3951 C.ar           1 <1>                0.0000
     13 C13         -1.3310  -2.4943   2.6240 C.ar           1 <1>                0.0000
     14 C14         -2.2892  -3.6503   2.8227 C.3            1 <1>                0.0000
     15 C15         -2.3834  -4.3393   1.4452 C.3            1 <1>                0.0000
     16 C16         -1.0263  -3.9850   0.8016 C.3            1 <1>                0.0000
     17 C17         -0.6026  -2.6878   1.4578 C.ar           1 <1>                0.0000
     18 C18          0.3408  -1.7592   1.0636 C.ar           1 <1>                0.0000
     19 C19          0.5598  -0.6249   1.8313 C.ar           1 <1>                0.0000
     20 C20          1.1093   0.6308  -1.5033 C.ar           1 <1>                0.0000
     21 C21          0.4708   1.2529  -2.5590 C.ar           1 <1>                0.0000
     22 C22         -0.1547   0.4277  -3.6539 C.3            1 <1>                0.0000
     23 H23          0.7939   5.0582  -3.6544 H              1 <1>                0.0000
     24 H24         -0.7559   5.0420  -4.5297 H              1 <1>                0.0000
     25 H25         -0.7389   5.0324  -2.7498 H              1 <1>                0.0000
     26 H26          0.9451   4.4729  -1.6446 H              1 <1>                0.0000
     27 H27          2.0731   3.3566   0.2367 H              1 <1>                0.0000
     28 H28          2.7932  -0.2424   0.3179 H              1 <1>                0.0000
     29 H29          3.1752   1.3450   1.0267 H              1 <1>                0.0000
     30 H30          1.6819   2.1928   3.0004 H              1 <1>                0.0000
     31 H31         -1.6936  -1.2400   4.3005 H              1 <1>                0.0000
     32 H32         -1.8960  -4.3438   3.5662 H              1 <1>                0.0000
     33 H33         -3.2682  -3.2817   3.1288 H              1 <1>                0.0000
     34 H34         -2.4882  -5.4184   1.5583 H              1 <1>                0.0000
     35 H35         -3.2075  -3.9282   0.8622 H              1 <1>                0.0000
     36 H36         -0.2956  -4.7679   1.0047 H              1 <1>                0.0000
     37 H37         -1.1426  -3.8448  -0.2731 H              1 <1>                0.0000
     38 H38          0.9048  -1.9141   0.1557 H              1 <1>                0.0000
     39 H39          1.1567  -0.4473  -1.4611 H              1 <1>                0.0000
     40 H40         -1.1904   0.2067  -3.3958 H              1 <1>                0.0000
     41 H41         -0.1246   0.9843  -4.5906 H              1 <1>                0.0000
     42 H42          0.3985  -0.5046  -3.7674 H              1 <1>                0.0000
@<TRIPOS>BOND
    1    1    2 1     
    2    1   23 1     
    3    1   24 1     
    4    1   25 1     
    5    2    3 1     
    6    3   21 ar    
    7    3    4 ar    
    8    4    5 ar    
    9    4   26 1     
   10    5    6 ar    
   11    5   27 1     
   12    6    7 1     
   13    6   20 ar    
   14    7    8 1     
   15    7   28 1     
   16    7   29 1     
   17    8   19 1     
   18    8    9 1     
   19    9   10 2     
   20    9   30 1     
   21   10   11 1     
   22   11   19 ar    
   23   11   12 ar    
   24   12   13 ar    
   25   12   31 1     
   26   13   17 ar    
   27   13   14 1     
   28   14   15 1     
   29   14   32 1     
   30   14   33 1     
   31   15   16 1     
   32   15   34 1     
   33   15   35 1     
   34   16   17 1     
   35   16   36 1     
   36   16   37 1     
   37   17   18 ar    
   38   18   19 ar    
   39   18   38 1     
   40   20   21 ar    
   41   20   39 1     
   42   21   22 1     
   43   22   40 1     
   44   22   41 1     
   45   22   42 1     
@<TRIPOS>SUBSTRUCTURE
      1 ****           1
