#       Name:                1OY
#       Creating user name   gbret
#       Creation time:       Thu Sep  8 20:28:08 2016


#       File generated by GOLD software.
#

@<TRIPOS>MOLECULE
1OY
    68    70     1
SMALL
NO_CHARGES


@<TRIPOS>ATOM
      1 C1          -2.9661   4.1278   1.0757 C.3            1 <1>                0.0000
      2 C2          -3.4062   2.6631   1.0344 C.3            1 <1>                0.0000
      3 C3          -3.0011   1.9720   2.3380 C.3            1 <1>                0.0000
      4 C4          -4.9256   2.5915   0.8700 C.3            1 <1>                0.0000
      5 C5          -2.7319   1.9610  -0.1460 C.3            1 <1>                0.0000
      6 C6          -1.2164   2.1501  -0.0537 C.3            1 <1>                0.0000
      7 N7          -0.6853   1.4037   1.1074 N.3            1 <1>                0.0000
      8 C8          -0.2541   0.0846   0.5781 C.3            1 <1>                0.0000
      9 C9           0.3779   0.4413  -0.7908 C.3            1 <1>                0.0000
     10 C10          0.3406  -0.7441  -1.7205 C.ar           1 <1>                0.0000
     11 C11         -0.8692  -1.3254  -2.0513 C.ar           1 <1>                0.0000
     12 C12         -0.9045  -2.4127  -2.9040 C.ar           1 <1>                0.0000
     13 C13          0.2700  -2.9211  -3.4270 C.ar           1 <1>                0.0000
     14 C14          1.4816  -2.3419  -3.0975 C.ar           1 <1>                0.0000
     15 Cl15         2.9566  -2.9800  -3.7540 Cl             1 <1>                0.0000
     16 C16          1.5170  -1.2475  -2.2478 C.ar           1 <1>                0.0000
     17 F17          2.6999  -0.6801  -1.9252 F              1 <1>                0.0000
     18 C18         -0.5383   1.5730  -1.3102 C.3            1 <1>                0.0000
     19 C19         -1.5489   1.0296  -2.2322 C.1            1 <1>                0.0000
     20 N20         -2.3289   0.6102  -2.9437 N.1            1 <1>                0.0000
     21 C21          0.2806   2.6353  -1.9971 C.ar           1 <1>                0.0000
     22 C22          0.0343   2.9499  -3.3204 C.ar           1 <1>                0.0000
     23 C23          0.7849   3.9239  -3.9512 C.ar           1 <1>                0.0000
     24 C24          1.7842   4.5851  -3.2589 C.ar           1 <1>                0.0000
     25 Cl25         2.7263   5.8085  -4.0523 Cl             1 <1>                0.0000
     26 C26          2.0319   4.2716  -1.9350 C.ar           1 <1>                0.0000
     27 C27          1.2759   3.3001  -1.3013 C.ar           1 <1>                0.0000
     28 F28          1.5166   2.9932  -0.0078 F              1 <1>                0.0000
     29 C29          0.7688  -0.5452   1.4882 C.2            1 <1>                0.0000
     30 O30          1.3710   0.1386   2.2887 O.2            1 <1>                0.0000
     31 N31          1.0143  -1.8682   1.4127 N.am           1 <1>                0.0000
     32 C32          2.0086  -2.4804   2.2974 C.3            1 <1>                0.0000
     33 C33          2.0929  -3.9806   2.0090 C.3            1 <1>                0.0000
     34 C34          3.1314  -4.6200   2.9330 C.3            1 <1>                0.0000
     35 O35          2.6891  -4.5198   4.2882 O.3            1 <1>                0.0000
     36 C36          3.3061  -6.0938   2.5613 C.3            1 <1>                0.0000
     37 O37          4.3576  -6.6613   3.3451 O.3            1 <1>                0.0000
     38 H38         -1.8836   4.1788   1.1928 H              1 <1>                0.0000
     39 H39         -3.2547   4.6202   0.1470 H              1 <1>                0.0000
     40 H40         -3.4465   4.6280   1.9166 H              1 <1>                0.0000
     41 H41         -3.5872   2.3786   3.1621 H              1 <1>                0.0000
     42 H42         -3.1862   0.9011   2.2541 H              1 <1>                0.0000
     43 H43         -1.9414   2.1439   2.5262 H              1 <1>                0.0000
     44 H44         -5.2142   3.0838  -0.0586 H              1 <1>                0.0000
     45 H45         -5.2392   1.5480   0.8407 H              1 <1>                0.0000
     46 H46         -5.4060   3.0917   1.7110 H              1 <1>                0.0000
     47 H47         -2.9676   0.8971  -0.1188 H              1 <1>                0.0000
     48 H48         -3.0954   2.3900  -1.0797 H              1 <1>                0.0000
     49 H49         -0.9798   3.2097   0.0424 H              1 <1>                0.0000
     50 H50          0.0887   1.8945   1.5295 H              1 <1>                0.0000
     51 H51         -1.1112  -0.5757   0.4458 H              1 <1>                0.0000
     52 H52          1.4002   0.7972  -0.6627 H              1 <1>                0.0000
     53 H53         -1.7875  -0.9299  -1.6430 H              1 <1>                0.0000
     54 H54         -1.8504  -2.8658  -3.1615 H              1 <1>                0.0000
     55 H55          0.2412  -3.7709  -4.0929 H              1 <1>                0.0000
     56 H56         -0.7449   2.4339  -3.8618 H              1 <1>                0.0000
     57 H57          0.5916   4.1689  -4.9852 H              1 <1>                0.0000
     58 H58          2.8119   4.7872  -1.3945 H              1 <1>                0.0000
     59 H59          0.5326  -2.4151   0.7725 H              1 <1>                0.0000
     60 H60          2.9818  -2.0216   2.1228 H              1 <1>                0.0000
     61 H61          1.7151  -2.3259   3.3357 H              1 <1>                0.0000
     62 H62          1.1197  -4.4394   2.1837 H              1 <1>                0.0000
     63 H63          2.3864  -4.1351   0.9707 H              1 <1>                0.0000
     64 H64          4.0840  -4.1019   2.8225 H              1 <1>                0.0000
     65 H65          1.8451  -4.9594   4.4600 H              1 <1>                0.0000
     66 H66          2.3775  -6.6303   2.7562 H              1 <1>                0.0000
     67 H67          3.5572  -6.1744   1.5037 H              1 <1>                0.0000
     68 H68          4.5243  -7.5960   3.1618 H              1 <1>                0.0000
@<TRIPOS>BOND
    1    1    2 1     
    2    1   38 1     
    3    1   39 1     
    4    1   40 1     
    5    2    3 1     
    6    2    4 1     
    7    2    5 1     
    8    3   41 1     
    9    3   42 1     
   10    3   43 1     
   11    4   44 1     
   12    4   45 1     
   13    4   46 1     
   14    5    6 1     
   15    5   47 1     
   16    5   48 1     
   17    6   18 1     
   18    6    7 1     
   19    6   49 1     
   20    7    8 1     
   21    7   50 1     
   22    8    9 1     
   23    8   29 1     
   24    8   51 1     
   25    9   10 1     
   26    9   18 1     
   27    9   52 1     
   28   10   16 ar    
   29   10   11 ar    
   30   11   12 ar    
   31   11   53 1     
   32   12   13 ar    
   33   12   54 1     
   34   13   14 ar    
   35   13   55 1     
   36   14   15 1     
   37   14   16 ar    
   38   16   17 1     
   39   18   19 1     
   40   18   21 1     
   41   19   20 3     
   42   21   27 ar    
   43   21   22 ar    
   44   22   23 ar    
   45   22   56 1     
   46   23   24 ar    
   47   23   57 1     
   48   24   25 1     
   49   24   26 ar    
   50   26   27 ar    
   51   26   58 1     
   52   27   28 1     
   53   29   30 2     
   54   29   31 am    
   55   31   32 1     
   56   31   59 1     
   57   32   33 1     
   58   32   60 1     
   59   32   61 1     
   60   33   34 1     
   61   33   62 1     
   62   33   63 1     
   63   34   35 1     
   64   34   36 1     
   65   34   64 1     
   66   35   65 1     
   67   36   37 1     
   68   36   66 1     
   69   36   67 1     
   70   37   68 1     
@<TRIPOS>SUBSTRUCTURE
      1 ****           1
@<TRIPOS>SET
DONOR_HYDROGENS      STATIC     ATOMS    <user>   **** ""
4 50 59 65 68
ATOM$RED        STATIC     ATOMS    COLORGROUP SYSTEM
4 50 59 65 68
