#       Name:                1QK
#       Creating user name   gbret
#       Creation time:       Thu Sep  8 20:31:53 2016


#       File generated by GOLD software.
#

@<TRIPOS>MOLECULE
1QK
    57    60     1
SMALL
NO_CHARGES


@<TRIPOS>ATOM
      1 C1           0.1008   1.2334  -4.7302 C.3            1 <1>                0.0000
      2 C2           0.4943  -0.2301  -4.5193 C.3            1 <1>                0.0000
      3 C3           1.2455  -0.3660  -3.2200 C.2            1 <1>                0.0000
      4 C4           2.6214  -0.4920  -3.0774 C.2            1 <1>                0.0000
      5 N5           2.9103  -0.5870  -1.8007 N.2            1 <1>                0.0000
      6 N6           1.7229  -0.5257  -1.0624 N.pl3          1 <1>                0.0000
      7 C7           1.4662  -0.5782   0.2841 C.2            1 <1>                0.0000
      8 N8           2.4990  -0.7160   1.1879 N.pl3          1 <1>                0.0000
      9 C9           2.2134  -0.7709   2.6237 C.3            1 <1>                0.0000
     10 C10          3.5039  -0.9230   3.3870 C.ar           1 <1>                0.0000
     11 C11          4.0066  -2.1837   3.6720 C.ar           1 <1>                0.0000
     12 C12          5.1971  -2.2762   4.3761 C.ar           1 <1>                0.0000
     13 C13          5.8397  -1.1172   4.7684 C.ar           1 <1>                0.0000
     14 N14          5.3320   0.0664   4.4803 N.pl3          1 <1>                0.0000
     15 O15          6.0185   1.2319   4.8992 O.2            1 <1>                0.0000
     16 C16          4.2038   0.1918   3.8067 C.ar           1 <1>                0.0000
     17 C17          0.1752  -0.4916   0.7172 C.2            1 <1>                0.0000
     18 C18         -0.8575  -0.3512  -0.2235 C.2            1 <1>                0.0000
     19 N19         -0.5785  -0.3042  -1.5148 N.2            1 <1>                0.0000
     20 C20          0.6883  -0.3821  -1.9489 C.2            1 <1>                0.0000
     21 N21         -2.1724  -0.2622   0.2026 N.3            1 <1>                0.0000
     22 C22         -2.8076  -1.5859   0.2297 C.3            1 <1>                0.0000
     23 C23         -4.2059  -1.4698   0.8407 C.3            1 <1>                0.0000
     24 C24         -5.0437  -0.4980   0.0050 C.3            1 <1>                0.0000
     25 C25         -4.3361   0.8588  -0.0474 C.3            1 <1>                0.0000
     26 C26         -2.9340   0.6752  -0.6326 C.3            1 <1>                0.0000
     27 C27         -2.2156   2.0256  -0.6683 C.3            1 <1>                0.0000
     28 C28         -2.9576   2.9732  -1.6131 C.3            1 <1>                0.0000
     29 O29         -2.2213   4.1912  -1.7410 O.3            1 <1>                0.0000
     30 H30          0.9908   1.8603  -4.6766 H              1 <1>                0.0000
     31 H31         -0.3652   1.3469  -5.7090 H              1 <1>                0.0000
     32 H32         -0.6037   1.5354  -3.9552 H              1 <1>                0.0000
     33 H33         -0.4039  -0.8467  -4.4860 H              1 <1>                0.0000
     34 H34          1.1295  -0.5576  -5.3423 H              1 <1>                0.0000
     35 H35          3.3372  -0.5093  -3.8859 H              1 <1>                0.0000
     36 H36          3.4143  -0.7767   0.8727 H              1 <1>                0.0000
     37 H37          1.7160   0.1491   2.9307 H              1 <1>                0.0000
     38 H38          1.5651  -1.6218   2.8330 H              1 <1>                0.0000
     39 H39          3.4826  -3.0726   3.3530 H              1 <1>                0.0000
     40 H40          5.6171  -3.2420   4.6155 H              1 <1>                0.0000
     41 H41          6.7676  -1.1808   5.3173 H              1 <1>                0.0000
     42 H42          3.8187   1.1771   3.5889 H              1 <1>                0.0000
     43 H43         -0.0499  -0.5310   1.7728 H              1 <1>                0.0000
     44 H44         -2.8863  -1.9718  -0.7867 H              1 <1>                0.0000
     45 H45         -2.2040  -2.2661   0.8306 H              1 <1>                0.0000
     46 H46         -4.6831  -2.4498   0.8463 H              1 <1>                0.0000
     47 H47         -4.1270  -1.0970   1.8619 H              1 <1>                0.0000
     48 H48         -5.1554  -0.8899  -1.0060 H              1 <1>                0.0000
     49 H49         -6.0264  -0.3790   0.4612 H              1 <1>                0.0000
     50 H50         -4.9063   1.5426  -0.6763 H              1 <1>                0.0000
     51 H51         -4.2592   1.2683   0.9598 H              1 <1>                0.0000
     52 H52         -3.0121   0.2787  -1.6450 H              1 <1>                0.0000
     53 H53         -2.1963   2.4535   0.3340 H              1 <1>                0.0000
     54 H54         -1.1946   1.8848  -1.0230 H              1 <1>                0.0000
     55 H55         -3.0581   2.5049  -2.5922 H              1 <1>                0.0000
     56 H56         -3.9471   3.1875  -1.2095 H              1 <1>                0.0000
     57 H57         -2.6700   4.8688  -2.2651 H              1 <1>                0.0000
@<TRIPOS>BOND
    1    1    2 1     
    2    1   30 1     
    3    1   31 1     
    4    1   32 1     
    5    2    3 1     
    6    2   33 1     
    7    2   34 1     
    8    3   20 2     
    9    3    4 1     
   10    4    5 2     
   11    4   35 1     
   12    5    6 1     
   13    6   20 1     
   14    6    7 1     
   15    7    8 1     
   16    7   17 2     
   17    8    9 1     
   18    8   36 1     
   19    9   10 1     
   20    9   37 1     
   21    9   38 1     
   22   10   16 ar    
   23   10   11 ar    
   24   11   12 ar    
   25   11   39 1     
   26   12   13 ar    
   27   12   40 1     
   28   13   14 ar    
   29   13   41 1     
   30   14   15 1     
   31   14   16 ar    
   32   16   42 1     
   33   17   18 1     
   34   17   43 1     
   35   18   19 2     
   36   18   21 1     
   37   19   20 1     
   38   21   26 1     
   39   21   22 1     
   40   22   23 1     
   41   22   44 1     
   42   22   45 1     
   43   23   24 1     
   44   23   46 1     
   45   23   47 1     
   46   24   25 1     
   47   24   48 1     
   48   24   49 1     
   49   25   26 1     
   50   25   50 1     
   51   25   51 1     
   52   26   27 1     
   53   26   52 1     
   54   27   28 1     
   55   27   53 1     
   56   27   54 1     
   57   28   29 1     
   58   28   55 1     
   59   28   56 1     
   60   29   57 1     
@<TRIPOS>SUBSTRUCTURE
      1 ****           1
@<TRIPOS>SET
DONOR_HYDROGENS      STATIC     ATOMS    <user>   **** ""
2 36 57
ATOM$RED        STATIC     ATOMS    COLORGROUP SYSTEM
2 36 57
