#       Name:                1R2
#       Creating user name   gbret
#       Creation time:       Thu Sep  8 20:33:05 2016


#       File generated by GOLD software.
#

@<TRIPOS>MOLECULE
1R2
    28    29     1
SMALL
NO_CHARGES


@<TRIPOS>ATOM
      1 O1           2.4894  -0.3514   3.6475 O.3            1 <1>                0.0000
      2 C2           1.3694  -0.4031   2.8792 C.ar           1 <1>                0.0000
      3 C3           1.3912  -1.0793   1.6676 C.ar           1 <1>                0.0000
      4 C4           0.2509  -1.1360   0.8790 C.ar           1 <1>                0.0000
      5 O5           0.2781  -1.8001  -0.3063 O.3            1 <1>                0.0000
      6 C6           0.1583  -1.0728  -1.4479 C.ar           1 <1>                0.0000
      7 C7           0.0473  -1.7153  -2.6729 C.ar           1 <1>                0.0000
      8 C8          -0.0743  -0.9738  -3.8318 C.ar           1 <1>                0.0000
      9 C9          -0.0855   0.4078  -3.7721 C.ar           1 <1>                0.0000
     10 C10          0.0255   1.0504  -2.5530 C.ar           1 <1>                0.0000
     11 C11          0.1411   0.3132  -1.3902 C.ar           1 <1>                0.0000
     12 N12          0.0142   2.5293  -2.4930 N.pl3          1 <1>                0.0000
     13 O13         -0.0929   3.1796  -3.5173 O.2            1 <1>                0.0000
     14 O14          0.1119   3.0960  -1.4192 O.2            1 <1>                0.0000
     15 C15         -0.9153  -0.5171   1.2983 C.ar           1 <1>                0.0000
     16 C16         -0.9419   0.1645   2.5167 C.ar           1 <1>                0.0000
     17 C17          0.2071   0.2142   3.3093 C.ar           1 <1>                0.0000
     18 C18         -2.1817   0.8255   2.9680 C.2            1 <1>                0.0000
     19 O19         -3.1879   0.7769   2.2747 O.co2          1 <1>                0.0000
     20 O20         -2.2029   1.4220   4.0354 O.co2          1 <1>                0.0000
     21 H21          2.5686  -1.0812   4.2769 H              1 <1>                0.0000
     22 H22          2.2987  -1.5627   1.3373 H              1 <1>                0.0000
     23 H23          0.0563  -2.7943  -2.7201 H              1 <1>                0.0000
     24 H24         -0.1604  -1.4733  -4.7854 H              1 <1>                0.0000
     25 H25         -0.1807   0.9858  -4.6794 H              1 <1>                0.0000
     26 H26          0.2274   0.8157  -0.4381 H              1 <1>                0.0000
     27 H27         -1.8022  -0.5614   0.6838 H              1 <1>                0.0000
     28 H28          0.1911   0.7399   4.2526 H              1 <1>                0.0000
@<TRIPOS>BOND
    1    1    2 1     
    2    1   21 1     
    3    2   17 ar    
    4    2    3 ar    
    5    3    4 ar    
    6    3   22 1     
    7    4    5 1     
    8    4   15 ar    
    9    5    6 1     
   10    6   11 ar    
   11    6    7 ar    
   12    7    8 ar    
   13    7   23 1     
   14    8    9 ar    
   15    8   24 1     
   16    9   10 ar    
   17    9   25 1     
   18   10   11 ar    
   19   10   12 1     
   20   11   26 1     
   21   12   13 2     
   22   12   14 2     
   23   15   16 ar    
   24   15   27 1     
   25   16   17 ar    
   26   16   18 1     
   27   17   28 1     
   28   18   19 ar    
   29   18   20 ar    
@<TRIPOS>SUBSTRUCTURE
      1 ****           1
@<TRIPOS>SET
DONOR_HYDROGENS      STATIC     ATOMS    <user>   **** ""
1 21
ATOM$RED        STATIC     ATOMS    COLORGROUP SYSTEM
1 21
