#       Name:                1WH
#       Creating user name   gbret
#       Creation time:       Thu Sep  8 20:44:26 2016


#       File generated by GOLD software.
#

@<TRIPOS>MOLECULE
1WH
    45    47     1
SMALL
NO_CHARGES


@<TRIPOS>ATOM
      1 C1           3.1133   4.2661   2.3933 C.3            1 <1>                0.0000
      2 O2           3.1327   2.8372   2.3854 O.3            1 <1>                0.0000
      3 C3           3.7824   2.2710   1.2455 C.3            1 <1>                0.0000
      4 C4           3.7437   0.7446   1.3423 C.3            1 <1>                0.0000
      5 N5           2.3547   0.2854   1.2646 N.am           1 <1>                0.0000
      6 C6           1.4500   0.1005   2.4048 C.3            1 <1>                0.0000
      7 C7           0.1389  -0.3803   1.8307 C.ar           1 <1>                0.0000
      8 N8          -1.0132  -0.7032   2.3751 N.ar           1 <1>                0.0000
      9 C9          -2.0419  -1.1074   1.6512 C.ar           1 <1>                0.0000
     10 C10         -3.3353  -1.4626   2.3382 C.3            1 <1>                0.0000
     11 C11         -1.9545  -1.2099   0.2777 C.ar           1 <1>                0.0000
     12 C12         -3.1403  -1.6720  -0.5294 C.3            1 <1>                0.0000
     13 N13         -3.9518  -0.5104  -0.9166 N.4            1 <1>                0.0000
     14 H14         -4.7457  -0.8198  -1.4570 H              1 <1>                0.0000
     15 H15         -4.2743  -0.0340  -0.0877 H              1 <1>                0.0000
     16 H16         -3.3928   0.1205  -1.4712 H              1 <1>                0.0000
     17 C17         -0.7539  -0.8797  -0.3556 C.ar           1 <1>                0.0000
     18 C18          0.3220  -0.4529   0.4494 C.ar           1 <1>                0.0000
     19 C19          1.6959  -0.0308   0.1360 C.2            1 <1>                0.0000
     20 O20          2.1686   0.0221  -0.9829 O.2            1 <1>                0.0000
     21 C21         -0.6153  -0.9754  -1.8269 C.ar           1 <1>                0.0000
     22 C22         -0.9162   0.1238  -2.6315 C.ar           1 <1>                0.0000
     23 C23         -0.7851   0.0294  -4.0011 C.ar           1 <1>                0.0000
     24 C24         -0.3554  -1.1539  -4.5791 C.ar           1 <1>                0.0000
     25 Cl25        -0.1923  -1.2644  -6.3038 Cl             1 <1>                0.0000
     26 C26         -0.0552  -2.2483  -3.7867 C.ar           1 <1>                0.0000
     27 C27         -0.1777  -2.1639  -2.4136 C.ar           1 <1>                0.0000
     28 Cl28         0.1996  -3.5368  -1.4204 Cl             1 <1>                0.0000
     29 H29          4.1359   4.6434   2.3855 H              1 <1>                0.0000
     30 H30          2.5861   4.6272   1.5102 H              1 <1>                0.0000
     31 H31          2.6031   4.6176   3.2901 H              1 <1>                0.0000
     32 H32          3.2691   2.5907   0.3387 H              1 <1>                0.0000
     33 H33          4.8189   2.6069   1.2140 H              1 <1>                0.0000
     34 H34          4.3153   0.3138   0.5203 H              1 <1>                0.0000
     35 H35          4.1779   0.4296   2.2912 H              1 <1>                0.0000
     36 H36          1.8559  -0.6457   3.0878 H              1 <1>                0.0000
     37 H37          1.3060   1.0470   2.9260 H              1 <1>                0.0000
     38 H38         -3.9639  -0.5751   2.4107 H              1 <1>                0.0000
     39 H39         -3.8539  -2.2291   1.7624 H              1 <1>                0.0000
     40 H40         -3.1235  -1.8406   3.3384 H              1 <1>                0.0000
     41 H41         -2.7920  -2.1867  -1.4248 H              1 <1>                0.0000
     42 H42         -3.7442  -2.3536   0.0697 H              1 <1>                0.0000
     43 H43         -1.2517   1.0470  -2.1826 H              1 <1>                0.0000
     44 H44         -1.0182   0.8799  -4.6246 H              1 <1>                0.0000
     45 H45          0.2791  -3.1685  -4.2426 H              1 <1>                0.0000
@<TRIPOS>BOND
    1    1    2 1     
    2    1   29 1     
    3    1   30 1     
    4    1   31 1     
    5    2    3 1     
    6    3    4 1     
    7    3   32 1     
    8    3   33 1     
    9    4    5 1     
   10    4   34 1     
   11    4   35 1     
   12    5   19 am    
   13    5    6 1     
   14    6    7 1     
   15    6   36 1     
   16    6   37 1     
   17    7   18 ar    
   18    7    8 ar    
   19    8    9 ar    
   20    9   10 1     
   21    9   11 ar    
   22   10   38 1     
   23   10   39 1     
   24   10   40 1     
   25   11   12 1     
   26   11   17 ar    
   27   12   13 1     
   28   12   41 1     
   29   12   42 1     
   30   13   14 1     
   31   13   15 1     
   32   13   16 1     
   33   17   18 ar    
   34   17   21 1     
   35   18   19 1     
   36   19   20 2     
   37   21   27 ar    
   38   21   22 ar    
   39   22   23 ar    
   40   22   43 1     
   41   23   24 ar    
   42   23   44 1     
   43   24   25 1     
   44   24   26 ar    
   45   26   27 ar    
   46   26   45 1     
   47   27   28 1     
@<TRIPOS>SUBSTRUCTURE
      1 ****           1
@<TRIPOS>SET
DONOR_HYDROGENS      STATIC     ATOMS    <user>   **** ""
3 14 15 16
ATOM$RED        STATIC     ATOMS    COLORGROUP SYSTEM
3 14 15 16
