#       Name:                1YZ
#       Creating user name   gbret
#       Creation time:       Thu Sep  8 20:50:00 2016


#       File generated by GOLD software.
#

@<TRIPOS>MOLECULE
1YZ
    42    44     1
SMALL
NO_CHARGES


@<TRIPOS>ATOM
      1 C1          -2.6702   3.9209   3.3598 C.3            1 <1>                0.0000
      2 C2          -2.5038   2.4023   3.4429 C.3            1 <1>                0.0000
      3 O3          -1.6957   1.9514   2.3540 O.3            1 <1>                0.0000
      4 C4          -1.4491   0.6170   2.2799 C.ar           1 <1>                0.0000
      5 C5          -1.9880  -0.2391   3.2450 C.ar           1 <1>                0.0000
      6 C6          -1.7586  -1.5788   3.1969 C.ar           1 <1>                0.0000
      7 C7          -0.9696  -2.1148   2.1637 C.ar           1 <1>                0.0000
      8 C8          -0.7144  -3.4947   2.0855 C.ar           1 <1>                0.0000
      9 C9           0.0526  -3.9880   1.0747 C.ar           1 <1>                0.0000
     10 C10          0.5947  -3.1465   0.1073 C.ar           1 <1>                0.0000
     11 C11          0.3685  -1.7882   0.1486 C.ar           1 <1>                0.0000
     12 N12          0.9177  -0.9517  -0.8280 N.pl3          1 <1>                0.0000
     13 C13          0.8534  -1.1733  -2.1693 C.2            1 <1>                0.0000
     14 C14          1.5000  -0.1425  -2.7748 C.2            1 <1>                0.0000
     15 N15          1.6860   0.0528  -4.1523 N.am           1 <1>                0.0000
     16 C16          1.1957  -0.8428  -5.0321 C.2            1 <1>                0.0000
     17 N17          1.3743  -0.6553  -6.3548 N.am           1 <1>                0.0000
     18 O18          0.5922  -1.8199  -4.6326 O.2            1 <1>                0.0000
     19 C19          1.9468   0.6952  -1.7196 C.2            1 <1>                0.0000
     20 N20          1.5513   0.1399  -0.5893 N.2            1 <1>                0.0000
     21 C21          2.7054   1.9517  -1.8600 C.2            1 <1>                0.0000
     22 N22          3.0654   2.6476  -0.7633 N.am           1 <1>                0.0000
     23 O23          3.0063   2.3601  -2.9651 O.2            1 <1>                0.0000
     24 C24         -0.4234  -1.2484   1.1850 C.ar           1 <1>                0.0000
     25 C25         -0.6825   0.1283   1.2599 C.ar           1 <1>                0.0000
     26 H26         -1.6912   4.3972   3.4123 H              1 <1>                0.0000
     27 H27         -3.1515   4.1826   2.4174 H              1 <1>                0.0000
     28 H28         -3.2866   4.2649   4.1903 H              1 <1>                0.0000
     29 H29         -2.0225   2.1406   4.3852 H              1 <1>                0.0000
     30 H30         -3.4828   1.9260   3.3903 H              1 <1>                0.0000
     31 H31         -2.5945   0.1691   4.0399 H              1 <1>                0.0000
     32 H32         -2.1806  -2.2284   3.9495 H              1 <1>                0.0000
     33 H33         -1.1261  -4.1632   2.8271 H              1 <1>                0.0000
     34 H34          0.2438  -5.0497   1.0226 H              1 <1>                0.0000
     35 H35          1.1998  -3.5631  -0.6843 H              1 <1>                0.0000
     36 H36          0.3787  -2.0102  -2.6598 H              1 <1>                0.0000
     37 H37          2.1674   0.8322  -4.4711 H              1 <1>                0.0000
     38 H38          1.0212  -1.2997  -6.9880 H              1 <1>                0.0000
     39 H39          1.8557   0.1242  -6.6735 H              1 <1>                0.0000
     40 H40          3.5644   3.4743  -0.8556 H              1 <1>                0.0000
     41 H41          2.8254   2.3218   0.1183 H              1 <1>                0.0000
     42 H42         -0.2750   0.7987   0.5177 H              1 <1>                0.0000
@<TRIPOS>BOND
    1    1    2 1     
    2    1   26 1     
    3    1   27 1     
    4    1   28 1     
    5    2    3 1     
    6    2   29 1     
    7    2   30 1     
    8    3    4 1     
    9    4   25 ar    
   10    4    5 ar    
   11    5    6 ar    
   12    5   31 1     
   13    6    7 ar    
   14    6   32 1     
   15    7   24 ar    
   16    7    8 ar    
   17    8    9 ar    
   18    8   33 1     
   19    9   10 ar    
   20    9   34 1     
   21   10   11 ar    
   22   10   35 1     
   23   11   12 1     
   24   11   24 ar    
   25   12   20 1     
   26   12   13 1     
   27   13   14 2     
   28   13   36 1     
   29   14   15 1     
   30   14   19 1     
   31   15   16 am    
   32   15   37 1     
   33   16   17 am    
   34   16   18 2     
   35   17   38 1     
   36   17   39 1     
   37   19   20 2     
   38   19   21 1     
   39   21   22 am    
   40   21   23 2     
   41   22   40 1     
   42   22   41 1     
   43   24   25 ar    
   44   25   42 1     
@<TRIPOS>SUBSTRUCTURE
      1 ****           1
@<TRIPOS>SET
DONOR_HYDROGENS      STATIC     ATOMS    <user>   **** ""
5 37 38 39 40 41
ATOM$RED        STATIC     ATOMS    COLORGROUP SYSTEM
5 37 38 39 40 41
