#       Name:                20G
#       Creating user name   gbret
#       Creation time:       Thu Sep  8 20:52:14 2016


#       File generated by GOLD software.
#

@<TRIPOS>MOLECULE
20G
    47    48     1
SMALL
NO_CHARGES


@<TRIPOS>ATOM
      1 S1           4.8725   7.8446   0.2807 S.3            1 <1>                0.0000
      2 C2           4.8971   6.0308   0.2707 C.3            1 <1>                0.0000
      3 C3           3.4617   5.5013   0.2816 C.3            1 <1>                0.0000
      4 C4           3.4824   3.9714   0.2732 C.3            1 <1>                0.0000
      5 C5           2.0686   3.4498   0.2839 C.2            1 <1>                0.0000
      6 O6           1.1362   4.2253   0.2969 O.2            1 <1>                0.0000
      7 N7           1.8404   2.1215   0.2789 N.am           1 <1>                0.0000
      8 C8           0.4660   1.6144   0.2893 C.3            1 <1>                0.0000
      9 C9          -0.0702   1.5653  -1.1433 C.3            1 <1>                0.0000
     10 C10         -1.5189   1.0675  -1.1252 C.3            1 <1>                0.0000
     11 N11         -1.5679  -0.2195  -0.4181 N.am           1 <1>                0.0000
     12 C12         -0.9968  -0.3054   0.9329 C.3            1 <1>                0.0000
     13 C13          0.4460   0.2078   0.8918 C.3            1 <1>                0.0000
     14 C14         -2.1266  -1.3005  -0.9974 C.2            1 <1>                0.0000
     15 O15         -2.5951  -1.2166  -2.1130 O.2            1 <1>                0.0000
     16 C16         -2.1693  -2.6136  -0.2591 C.3            1 <1>                0.0000
     17 O17         -2.8056  -3.5987  -1.0756 O.3            1 <1>                0.0000
     18 C18         -2.9261  -4.8484  -0.5542 C.ar           1 <1>                0.0000
     19 C19         -2.4470  -5.1187   0.7190 C.ar           1 <1>                0.0000
     20 C20         -2.5707  -6.3891   1.2476 C.ar           1 <1>                0.0000
     21 C21         -3.1722  -7.3921   0.5080 C.ar           1 <1>                0.0000
     22 Cl22        -3.3261  -8.9875   1.1750 Cl             1 <1>                0.0000
     23 C23         -3.6514  -7.1252  -0.7620 C.ar           1 <1>                0.0000
     24 C24         -3.5340  -5.8541  -1.2929 C.ar           1 <1>                0.0000
     25 Cl25        -4.1354  -5.5191  -2.8866 Cl             1 <1>                0.0000
     26 H26          6.1787   8.1650   0.2699 H              1 <1>                0.0000
     27 H27          5.4073   5.6793  -0.6261 H              1 <1>                0.0000
     28 H28          5.4243   5.6698   1.1538 H              1 <1>                0.0000
     29 H29          2.9515   5.8528   1.1784 H              1 <1>                0.0000
     30 H30          2.9345   5.8623  -0.6015 H              1 <1>                0.0000
     31 H31          3.9926   3.6199  -0.6236 H              1 <1>                0.0000
     32 H32          4.0096   3.6103   1.1562 H              1 <1>                0.0000
     33 H33          2.5861   1.5013   0.2685 H              1 <1>                0.0000
     34 H34         -0.1603   2.2751   0.8888 H              1 <1>                0.0000
     35 H35         -0.0339   2.5634  -1.5798 H              1 <1>                0.0000
     36 H36          0.5407   0.8855  -1.7372 H              1 <1>                0.0000
     37 H37         -2.1480   1.7924  -0.6087 H              1 <1>                0.0000
     38 H38         -1.8729   0.9363  -2.1477 H              1 <1>                0.0000
     39 H39         -1.5833   0.3076   1.6173 H              1 <1>                0.0000
     40 H40         -1.0063  -1.3425   1.2684 H              1 <1>                0.0000
     41 H41          1.0521  -0.4592   0.2787 H              1 <1>                0.0000
     42 H42          0.8498   0.2397   1.9038 H              1 <1>                0.0000
     43 H43         -1.1532  -2.9339  -0.0286 H              1 <1>                0.0000
     44 H44         -2.7308  -2.4915   0.6671 H              1 <1>                0.0000
     45 H45         -1.9771  -4.3366   1.2968 H              1 <1>                0.0000
     46 H46         -2.1973  -6.5997   2.2389 H              1 <1>                0.0000
     47 H47         -4.1206  -7.9094  -1.3377 H              1 <1>                0.0000
@<TRIPOS>BOND
    1    1    2 1     
    2    1   26 1     
    3    2    3 1     
    4    2   27 1     
    5    2   28 1     
    6    3    4 1     
    7    3   29 1     
    8    3   30 1     
    9    4    5 1     
   10    4   31 1     
   11    4   32 1     
   12    5    6 2     
   13    5    7 am    
   14    7    8 1     
   15    7   33 1     
   16    8   13 1     
   17    8    9 1     
   18    8   34 1     
   19    9   10 1     
   20    9   35 1     
   21    9   36 1     
   22   10   11 1     
   23   10   37 1     
   24   10   38 1     
   25   11   12 1     
   26   11   14 am    
   27   12   13 1     
   28   12   39 1     
   29   12   40 1     
   30   13   41 1     
   31   13   42 1     
   32   14   15 2     
   33   14   16 1     
   34   16   17 1     
   35   16   43 1     
   36   16   44 1     
   37   17   18 1     
   38   18   24 ar    
   39   18   19 ar    
   40   19   20 ar    
   41   19   45 1     
   42   20   21 ar    
   43   20   46 1     
   44   21   22 1     
   45   21   23 ar    
   46   23   24 ar    
   47   23   47 1     
   48   24   25 1     
@<TRIPOS>SUBSTRUCTURE
      1 ****           1
@<TRIPOS>SET
DONOR_HYDROGENS      STATIC     ATOMS    <user>   **** ""
1 33
ATOM$RED        STATIC     ATOMS    COLORGROUP SYSTEM
1 33
