#       Name:                20M
#       Creating user name   gbret
#       Creation time:       Thu Sep  8 20:52:33 2016


#       File generated by GOLD software.
#

@<TRIPOS>MOLECULE
20M
    63    67     1
SMALL
NO_CHARGES


@<TRIPOS>ATOM
      1 O1           2.9393  -2.8956  -0.5855 O.2            1 <1>                0.0000
      2 S2           2.9200  -1.4747  -0.5777 S.o2           1 <1>                0.0000
      3 O3           4.0989  -0.6814  -0.5847 O.2            1 <1>                0.0000
      4 N4           2.0370  -1.0118  -1.8999 N.pl3          1 <1>                0.0000
      5 C5           1.0469  -1.9201  -2.4943 C.3            1 <1>                0.0000
      6 C6           1.3476  -2.0673  -3.9892 C.3            1 <1>                0.0000
      7 C7           1.3956  -0.6805  -4.6347 C.3            1 <1>                0.0000
      8 C8           2.5159   0.1432  -3.9954 C.3            1 <1>                0.0000
      9 C9           2.2244   0.3175  -2.4972 C.3            1 <1>                0.0000
     10 N10          1.6510  -0.8195  -6.0746 N.4            1 <1>                0.0000
     11 H11          2.5270  -1.2986  -6.2202 H              1 <1>                0.0000
     12 C12          1.7053   0.5182  -6.7017 C.3            1 <1>                0.0000
     13 C13          1.0586   0.3279  -8.0964 C.3            1 <1>                0.0000
     14 C14         -0.0731  -0.6854  -7.7814 C.3            1 <1>                0.0000
     15 C15          0.5571  -1.5844  -6.7010 C.3            1 <1>                0.0000
     16 C16          2.0075  -0.9974   0.8521 C.ar           1 <1>                0.0000
     17 C17          2.2009   0.2525   1.4100 C.ar           1 <1>                0.0000
     18 C18          1.4851   0.6271   2.5317 C.ar           1 <1>                0.0000
     19 C19          0.5755  -0.2482   3.0952 C.ar           1 <1>                0.0000
     20 C20         -0.2045   0.1599   4.3183 C.3            1 <1>                0.0000
     21 N21         -1.4529   0.8074   3.9078 N.pl3          1 <1>                0.0000
     22 C22         -2.3310   1.2658   4.8553 C.2            1 <1>                0.0000
     23 N23         -2.0190   1.1126   6.1073 N.2            1 <1>                0.0000
     24 C24         -2.7678   1.4457   7.1837 C.ar           1 <1>                0.0000
     25 C25         -2.2203   1.4768   8.4741 C.ar           1 <1>                0.0000
     26 C26         -3.0316   1.8337   9.5289 C.ar           1 <1>                0.0000
     27 N27         -4.3024   2.1446   9.3482 N.ar           1 <1>                0.0000
     28 C28         -4.8638   2.1255   8.1481 C.ar           1 <1>                0.0000
     29 C29         -4.1254   1.7768   7.0518 C.ar           1 <1>                0.0000
     30 S30         -4.8252   1.7095   5.4298 S.o2           1 <1>                0.0000
     31 O31         -5.3300   0.3935   5.2496 O.2            1 <1>                0.0000
     32 O32         -5.6093   2.8833   5.2669 O.2            1 <1>                0.0000
     33 N33         -3.4932   1.8684   4.4284 N.pl3          1 <1>                0.0000
     34 C34          0.3811  -1.4975   2.5365 C.ar           1 <1>                0.0000
     35 C35          1.0942  -1.8706   1.4125 C.ar           1 <1>                0.0000
     36 H36          1.1093  -2.8953  -2.0113 H              1 <1>                0.0000
     37 H37          0.0467  -1.5077  -2.3617 H              1 <1>                0.0000
     38 H38          2.3097  -2.5628  -4.1197 H              1 <1>                0.0000
     39 H39          0.5650  -2.6613  -4.4610 H              1 <1>                0.0000
     40 H40          0.4416  -0.1758  -4.4824 H              1 <1>                0.0000
     41 H41          3.4669  -0.3732  -4.1258 H              1 <1>                0.0000
     42 H42          2.5647   1.1224  -4.4717 H              1 <1>                0.0000
     43 H43          1.3206   0.9129  -2.3676 H              1 <1>                0.0000
     44 H44          3.0656   0.8172  -2.0170 H              1 <1>                0.0000
     45 H45          1.1343   1.2366  -6.1135 H              1 <1>                0.0000
     46 H46          2.7393   0.8474  -6.8047 H              1 <1>                0.0000
     47 H47          0.6493   1.2671  -8.4685 H              1 <1>                0.0000
     48 H48          1.7732  -0.0924  -8.8041 H              1 <1>                0.0000
     49 H49         -0.9517  -0.1726  -7.3901 H              1 <1>                0.0000
     50 H50         -0.3277  -1.2667  -8.6677 H              1 <1>                0.0000
     51 H51          0.9562  -2.4897  -7.1584 H              1 <1>                0.0000
     52 H52         -0.1909  -1.8436  -5.9517 H              1 <1>                0.0000
     53 H53          2.9116   0.9363   0.9697 H              1 <1>                0.0000
     54 H54          1.6367   1.6033   2.9680 H              1 <1>                0.0000
     55 H55         -0.4324  -0.7231   4.9153 H              1 <1>                0.0000
     56 H56          0.3880   0.8565   4.9115 H              1 <1>                0.0000
     57 H57         -1.6581   0.9117   2.9655 H              1 <1>                0.0000
     58 H58         -1.1828   1.2255   8.6382 H              1 <1>                0.0000
     59 H59         -2.6189   1.8597  10.5266 H              1 <1>                0.0000
     60 H60         -5.9060   2.3854   8.0359 H              1 <1>                0.0000
     61 H61         -3.5402   2.3547   3.5904 H              1 <1>                0.0000
     62 H62         -0.3298  -2.1812   2.9765 H              1 <1>                0.0000
     63 H63          0.9423  -2.8467   0.9760 H              1 <1>                0.0000
@<TRIPOS>BOND
    1    1    2 2     
    2    2    3 2     
    3    2    4 1     
    4    2   16 1     
    5    4    9 1     
    6    4    5 1     
    7    5    6 1     
    8    5   36 1     
    9    5   37 1     
   10    6    7 1     
   11    6   38 1     
   12    6   39 1     
   13    7    8 1     
   14    7   10 1     
   15    7   40 1     
   16    8    9 1     
   17    8   41 1     
   18    8   42 1     
   19    9   43 1     
   20    9   44 1     
   21   10   11 1     
   22   10   15 1     
   23   10   12 1     
   24   12   13 1     
   25   12   45 1     
   26   12   46 1     
   27   13   14 1     
   28   13   47 1     
   29   13   48 1     
   30   14   15 1     
   31   14   49 1     
   32   14   50 1     
   33   15   51 1     
   34   15   52 1     
   35   16   35 ar    
   36   16   17 ar    
   37   17   18 ar    
   38   17   53 1     
   39   18   19 ar    
   40   18   54 1     
   41   19   20 1     
   42   19   34 ar    
   43   20   21 1     
   44   20   55 1     
   45   20   56 1     
   46   21   22 1     
   47   21   57 1     
   48   22   33 1     
   49   22   23 2     
   50   23   24 1     
   51   24   29 ar    
   52   24   25 ar    
   53   25   26 ar    
   54   25   58 1     
   55   26   27 ar    
   56   26   59 1     
   57   27   28 ar    
   58   28   29 ar    
   59   28   60 1     
   60   29   30 1     
   61   30   31 2     
   62   30   32 2     
   63   30   33 1     
   64   33   61 1     
   65   34   35 ar    
   66   34   62 1     
   67   35   63 1     
@<TRIPOS>SUBSTRUCTURE
      1 ****           1
@<TRIPOS>SET
DONOR_HYDROGENS      STATIC     ATOMS    <user>   **** ""
3 11 57 61
ATOM$RED        STATIC     ATOMS    COLORGROUP SYSTEM
3 11 57 61
