#       Name:                218
#       Creating user name   gbret
#       Creation time:       Thu Sep  8 20:54:08 2016


#       File generated by GOLD software.
#

@<TRIPOS>MOLECULE
218
    38    39     1
SMALL
NO_CHARGES


@<TRIPOS>ATOM
      1 C1           1.6385   5.1657   0.9209 C.3            1 <1>                0.0000
      2 C2           1.6585   3.6632   0.8063 C.ar           1 <1>                0.0000
      3 N3           1.6328   3.1116  -0.3903 N.ar           1 <1>                0.0000
      4 C4           1.6491   1.7942  -0.5354 C.ar           1 <1>                0.0000
      5 C5           1.6937   0.9929   0.5887 C.ar           1 <1>                0.0000
      6 C6           1.7139  -0.5090   0.4665 C.3            1 <1>                0.0000
      7 N7           0.3488  -1.0271   0.5859 N.pl3          1 <1>                0.0000
      8 C8          -0.0797  -1.4428   1.7619 C.ar           1 <1>                0.0000
      9 C9          -1.3611  -1.9373   1.9128 C.ar           1 <1>                0.0000
     10 C10         -2.1984  -1.9929   0.8088 C.ar           1 <1>                0.0000
     11 C11         -1.7128  -1.5470  -0.4107 C.ar           1 <1>                0.0000
     12 C12         -2.5840  -1.5871  -1.6397 C.3            1 <1>                0.0000
     13 C13         -2.3090  -2.8753  -2.4180 C.3            1 <1>                0.0000
     14 O14         -3.1352  -2.9133  -3.5833 O.3            1 <1>                0.0000
     15 C15         -0.4210  -1.0606  -0.4841 C.ar           1 <1>                0.0000
     16 C16          0.1174  -0.5732  -1.8045 C.3            1 <1>                0.0000
     17 C17          1.7200   1.6094   1.8412 C.ar           1 <1>                0.0000
     18 N18          1.7649   0.8496   2.9988 N.pl3          1 <1>                0.0000
     19 N19          1.7066   2.9377   1.9051 N.ar           1 <1>                0.0000
     20 H20          2.6607   5.5442   0.9143 H              1 <1>                0.0000
     21 H21          1.0896   5.5870   0.0787 H              1 <1>                0.0000
     22 H22          1.1508   5.4526   1.8525 H              1 <1>                0.0000
     23 H23          1.6273   1.3526  -1.5208 H              1 <1>                0.0000
     24 H24          2.1253  -0.7890  -0.5033 H              1 <1>                0.0000
     25 H25          2.3328  -0.9297   1.2590 H              1 <1>                0.0000
     26 H26          0.5787  -1.3965   2.6167 H              1 <1>                0.0000
     27 H27         -1.7061  -2.2765   2.8784 H              1 <1>                0.0000
     28 H28         -3.2048  -2.3749   0.8969 H              1 <1>                0.0000
     29 H29         -3.6325  -1.5587  -1.3429 H              1 <1>                0.0000
     30 H30         -2.3617  -0.7267  -2.2709 H              1 <1>                0.0000
     31 H31         -1.2606  -2.9037  -2.7148 H              1 <1>                0.0000
     32 H32         -2.5314  -3.7357  -1.7868 H              1 <1>                0.0000
     33 H33         -3.0136  -3.7044  -4.1260 H              1 <1>                0.0000
     34 H34         -0.0101   0.5072  -1.8724 H              1 <1>                0.0000
     35 H35          1.1766  -0.8194  -1.8782 H              1 <1>                0.0000
     36 H36         -0.4251  -1.0548  -2.6181 H              1 <1>                0.0000
     37 H37          1.7783  -0.1187   2.9432 H              1 <1>                0.0000
     38 H38          1.7830   1.2859   3.8650 H              1 <1>                0.0000
@<TRIPOS>BOND
    1    1    2 1     
    2    1   20 1     
    3    1   21 1     
    4    1   22 1     
    5    2   19 ar    
    6    2    3 ar    
    7    3    4 ar    
    8    4    5 ar    
    9    4   23 1     
   10    5    6 1     
   11    5   17 ar    
   12    6    7 1     
   13    6   24 1     
   14    6   25 1     
   15    7   15 ar    
   16    7    8 ar    
   17    8    9 ar    
   18    8   26 1     
   19    9   10 ar    
   20    9   27 1     
   21   10   11 ar    
   22   10   28 1     
   23   11   12 1     
   24   11   15 ar    
   25   12   13 1     
   26   12   29 1     
   27   12   30 1     
   28   13   14 1     
   29   13   31 1     
   30   13   32 1     
   31   14   33 1     
   32   15   16 1     
   33   16   34 1     
   34   16   35 1     
   35   16   36 1     
   36   17   18 1     
   37   17   19 ar    
   38   18   37 1     
   39   18   38 1     
@<TRIPOS>SUBSTRUCTURE
      1 ****           1
@<TRIPOS>SET
DONOR_HYDROGENS      STATIC     ATOMS    <user>   **** ""
3 33 37 38
ATOM$RED        STATIC     ATOMS    COLORGROUP SYSTEM
3 33 37 38
