#       Name:                24U
#       Creating user name   gbret
#       Creation time:       Thu Sep  8 21:02:12 2016


#       File generated by GOLD software.
#

@<TRIPOS>MOLECULE
24U
    48    49     1
SMALL
NO_CHARGES


@<TRIPOS>ATOM
      1 C1          -2.1964   7.0491   1.2542 C.3            1 <1>                0.0000
      2 C2          -2.1756   5.5192   1.2458 C.3            1 <1>                0.0000
      3 C3          -1.4595   5.0258  -0.0130 C.3            1 <1>                0.0000
      4 C4          -1.4391   3.5190  -0.0213 C.2            1 <1>                0.0000
      5 O5          -1.9472   2.9006   0.8899 O.2            1 <1>                0.0000
      6 N6          -0.8560   2.8585  -1.0413 N.am           1 <1>                0.0000
      7 C7          -0.1983   3.4818  -2.2042 C.3            1 <1>                0.0000
      8 C8           0.8017   2.4140  -2.7136 C.3            1 <1>                0.0000
      9 C9           0.0039   1.1038  -2.4807 C.3            1 <1>                0.0000
     10 C10         -0.7651   1.3973  -1.1753 C.3            1 <1>                0.0000
     11 C11         -0.0229   0.8133  -0.0009 C.2            1 <1>                0.0000
     12 O12          0.3874   1.5398   0.8792 O.2            1 <1>                0.0000
     13 N13          0.1849  -0.5164   0.0713 N.am           1 <1>                0.0000
     14 C14          0.9064  -1.0841   1.2129 C.3            1 <1>                0.0000
     15 C15          1.0027  -2.5795   1.0530 C.ar           1 <1>                0.0000
     16 C16          0.0075  -3.3926   1.5654 C.ar           1 <1>                0.0000
     17 C17          0.0901  -4.7624   1.4227 C.ar           1 <1>                0.0000
     18 C18          1.1800  -5.3273   0.7596 C.ar           1 <1>                0.0000
     19 C19          2.1800  -4.5018   0.2448 C.ar           1 <1>                0.0000
     20 C20          2.0832  -3.1331   0.3895 C.ar           1 <1>                0.0000
     21 C21          1.2750  -6.7956   0.6034 C.2            1 <1>                0.0000
     22 N22          1.8966  -7.3138  -0.4539 N.pl3          1 <1>                0.0000
     23 N23          0.7390  -7.5987   1.5202 N.pl3          1 <1>                0.0000
     24 H24          0.2862  -7.2213   2.2906 H              1 <1>                0.0000
     25 H25          0.8014  -8.5614   1.4179 H              1 <1>                0.0000
     26 H26         -1.1738   7.4264   1.2465 H              1 <1>                0.0000
     27 H27         -2.7236   7.4101   0.3712 H              1 <1>                0.0000
     28 H28         -2.7066   7.4006   2.1510 H              1 <1>                0.0000
     29 H29         -1.6484   5.1582   2.1289 H              1 <1>                0.0000
     30 H30         -3.1982   5.1419   1.2536 H              1 <1>                0.0000
     31 H31         -1.9867   5.3869  -0.8960 H              1 <1>                0.0000
     32 H32         -0.4369   5.4031  -0.0207 H              1 <1>                0.0000
     33 H33         -0.9322   3.7131  -2.9762 H              1 <1>                0.0000
     34 H34          0.3322   4.3845  -1.9013 H              1 <1>                0.0000
     35 H35          1.0192   2.5560  -3.7722 H              1 <1>                0.0000
     36 H36          1.7179   2.4237  -2.1233 H              1 <1>                0.0000
     37 H37         -0.6849   0.9199  -3.3052 H              1 <1>                0.0000
     38 H38          0.6799   0.2595  -2.3458 H              1 <1>                0.0000
     39 H39         -1.7671   0.9721  -1.2318 H              1 <1>                0.0000
     40 H40         -0.1433  -1.0975  -0.6327 H              1 <1>                0.0000
     41 H41          1.9087  -0.6582   1.2575 H              1 <1>                0.0000
     42 H42          0.3712  -0.8509   2.1334 H              1 <1>                0.0000
     43 H43         -0.8356  -2.9541   2.0785 H              1 <1>                0.0000
     44 H44         -0.6871  -5.3961   1.8237 H              1 <1>                0.0000
     45 H45          3.0263  -4.9331  -0.2692 H              1 <1>                0.0000
     46 H46          2.8567  -2.4931  -0.0085 H              1 <1>                0.0000
     47 H47          2.2872  -6.7288  -1.1218 H              1 <1>                0.0000
     48 H48          1.9590  -8.2764  -0.5562 H              1 <1>                0.0000
@<TRIPOS>BOND
    1    1    2 1     
    2    1   26 1     
    3    1   27 1     
    4    1   28 1     
    5    2    3 1     
    6    2   29 1     
    7    2   30 1     
    8    3    4 1     
    9    3   31 1     
   10    3   32 1     
   11    4    5 2     
   12    4    6 am    
   13    6   10 1     
   14    6    7 1     
   15    7    8 1     
   16    7   33 1     
   17    7   34 1     
   18    8    9 1     
   19    8   35 1     
   20    8   36 1     
   21    9   10 1     
   22    9   37 1     
   23    9   38 1     
   24   10   11 1     
   25   10   39 1     
   26   11   12 2     
   27   11   13 am    
   28   13   14 1     
   29   13   40 1     
   30   14   15 1     
   31   14   41 1     
   32   14   42 1     
   33   15   20 ar    
   34   15   16 ar    
   35   16   17 ar    
   36   16   43 1     
   37   17   18 ar    
   38   17   44 1     
   39   18   19 ar    
   40   18   21 1     
   41   19   20 ar    
   42   19   45 1     
   43   20   46 1     
   44   21   22 2     
   45   21   23 1     
   46   22   47 1     
   47   22   48 1     
   48   23   24 1     
   49   23   25 1     
@<TRIPOS>SUBSTRUCTURE
      1 ****           1
@<TRIPOS>SET
DONOR_HYDROGENS      STATIC     ATOMS    <user>   **** ""
5 40 47 48 24 25
ATOM$RED        STATIC     ATOMS    COLORGROUP SYSTEM
5 40 47 48 24 25
