#       Name:                261
#       Creating user name   gbret
#       Creation time:       Thu Sep  8 21:04:38 2016


#       File generated by GOLD software.
#

@<TRIPOS>MOLECULE
261
    16    16     1
SMALL
NO_CHARGES


@<TRIPOS>ATOM
      1 C1          -0.9496   1.9260  -1.5557 C.3            1 <1>                0.0000
      2 O2          -0.9302   0.4971  -1.5636 O.3            1 <1>                0.0000
      3 C3          -0.3065  -0.1172  -0.5241 C.ar           1 <1>                0.0000
      4 C4           0.2699   0.6396   0.4856 C.ar           1 <1>                0.0000
      5 C5           0.9030   0.0128   1.5414 C.ar           1 <1>                0.0000
      6 C6           0.9628  -1.3676   1.5921 C.ar           1 <1>                0.0000
      7 C7           0.3895  -2.1241   0.5866 C.ar           1 <1>                0.0000
      8 C8          -0.2501  -1.5022  -0.4681 C.ar           1 <1>                0.0000
      9 H9           0.0730   2.3033  -1.5635 H              1 <1>                0.0000
     10 H10         -1.4768   2.2871  -2.4388 H              1 <1>                0.0000
     11 H11         -1.4598   2.2775  -0.6590 H              1 <1>                0.0000
     12 H12          0.2241   1.7179   0.4462 H              1 <1>                0.0000
     13 H13          1.3519   0.6015   2.3277 H              1 <1>                0.0000
     14 H14          1.4584  -1.8558   2.4181 H              1 <1>                0.0000
     15 H15          0.4378  -3.2023   0.6283 H              1 <1>                0.0000
     16 H16         -0.6978  -2.0935  -1.2531 H              1 <1>                0.0000
@<TRIPOS>BOND
    1    1    2 1     
    2    1    9 1     
    3    1   10 1     
    4    1   11 1     
    5    2    3 1     
    6    3    8 ar    
    7    3    4 ar    
    8    4    5 ar    
    9    4   12 1     
   10    5    6 ar    
   11    5   13 1     
   12    6    7 ar    
   13    6   14 1     
   14    7    8 ar    
   15    7   15 1     
   16    8   16 1     
@<TRIPOS>SUBSTRUCTURE
      1 ****           1
