#       Name:                263
#       Creating user name   gbret
#       Creation time:       Thu Sep  8 21:04:45 2016


#       File generated by GOLD software.
#

@<TRIPOS>MOLECULE
263
    20    20     1
SMALL
NO_CHARGES


@<TRIPOS>ATOM
      1 C1          -0.2536   2.7475  -0.8698 C.3            1 <1>                0.0000
      2 C2          -0.2331   1.2406  -0.8781 C.ar           1 <1>                0.0000
      3 C3          -0.2295   0.5559  -2.0792 C.ar           1 <1>                0.0000
      4 C4          -0.2107  -0.8260  -2.0868 C.ar           1 <1>                0.0000
      5 C5          -0.1952  -1.5238  -0.8933 C.ar           1 <1>                0.0000
      6 C6          -0.1979  -0.8393   0.3074 C.ar           1 <1>                0.0000
      7 C7          -0.1814  -1.5998   1.6084 C.3            1 <1>                0.0000
      8 N8           1.2050  -1.8284   2.0229 N.2            1 <1>                0.0000
      9 N9           1.5724  -1.4220   3.0043 N.1            1 <1>                0.0000
     10 N10          1.9398  -1.0157   3.9858 N.1            1 <1>                0.0000
     11 C11         -0.2123   0.5432   0.3150 C.ar           1 <1>                0.0000
     12 H12          0.7690   3.1248  -0.8775 H              1 <1>                0.0000
     13 H13         -0.7807   3.1086  -1.7529 H              1 <1>                0.0000
     14 H14         -0.7638   3.0990   0.0270 H              1 <1>                0.0000
     15 H15         -0.2416   1.1010  -3.0115 H              1 <1>                0.0000
     16 H16         -0.2086  -1.3609  -3.0250 H              1 <1>                0.0000
     17 H17         -0.1812  -2.6037  -0.8992 H              1 <1>                0.0000
     18 H18         -0.6989  -1.0216   2.3738 H              1 <1>                0.0000
     19 H19         -0.6836  -2.5581   1.4754 H              1 <1>                0.0000
     20 H20         -0.2144   1.0781   1.2533 H              1 <1>                0.0000
@<TRIPOS>BOND
    1    1    2 1     
    2    1   12 1     
    3    1   13 1     
    4    1   14 1     
    5    2   11 ar    
    6    2    3 ar    
    7    3    4 ar    
    8    3   15 1     
    9    4    5 ar    
   10    4   16 1     
   11    5    6 ar    
   12    5   17 1     
   13    6    7 1     
   14    6   11 ar    
   15    7    8 1     
   16    7   18 1     
   17    7   19 1     
   18    8    9 2     
   19    9   10 2     
   20   11   20 1     
@<TRIPOS>SUBSTRUCTURE
      1 ****           1
