#       Name:                277
#       Creating user name   gbret
#       Creation time:       Thu Sep  8 21:07:07 2016


#       File generated by GOLD software.
#

@<TRIPOS>MOLECULE
277
    54    55     1
SMALL
NO_CHARGES


@<TRIPOS>ATOM
      1 C1           1.7495   3.0485   0.0290 C.3            1 <1>                0.0000
      2 C2           1.4374   1.6250   0.4949 C.3            1 <1>                0.0000
      3 C3           1.5313   1.5555   2.0204 C.3            1 <1>                0.0000
      4 N4           0.4389   2.3377   2.6144 N.4            1 <1>                0.0000
      5 H5           0.4739   2.2549   3.6194 H              1 <1>                0.0000
      6 H6           0.5386   3.3071   2.3531 H              1 <1>                0.0000
      7 H7          -0.4461   1.9881   2.2787 H              1 <1>                0.0000
      8 C8           1.4211   0.1200   2.4656 C.2            1 <1>                0.0000
      9 O9           0.5818  -0.1994   3.2807 O.2            1 <1>                0.0000
     10 N10          2.2554  -0.8089   1.9580 N.am           1 <1>                0.0000
     11 C11          3.3933  -0.5425   1.0594 C.3            1 <1>                0.0000
     12 C12          4.3520  -1.7414   1.2674 C.3            1 <1>                0.0000
     13 C13          3.3510  -2.9133   1.4465 C.3            1 <1>                0.0000
     14 F14          3.9219  -3.9403   2.2057 F              1 <1>                0.0000
     15 C15          2.1851  -2.2550   2.2138 C.3            1 <1>                0.0000
     16 C16          0.0235   1.2422   0.0530 C.3            1 <1>                0.0000
     17 C17         -0.1431   1.5405  -1.4383 C.3            1 <1>                0.0000
     18 C18         -1.5570   1.1577  -1.8802 C.3            1 <1>                0.0000
     19 C19         -1.7828  -0.3347  -1.6303 C.3            1 <1>                0.0000
     20 C20         -1.6163  -0.6331  -0.1390 C.3            1 <1>                0.0000
     21 C21         -0.2024  -0.2503   0.3029 C.3            1 <1>                0.0000
     22 N22         -3.1367  -0.7013  -2.0534 N.am           1 <1>                0.0000
     23 C23         -4.2974  -0.0588  -1.4321 C.3            1 <1>                0.0000
     24 C24         -3.3143  -1.6296  -3.0142 C.2            1 <1>                0.0000
     25 C25         -4.6959  -1.9058  -3.5489 C.3            1 <1>                0.0000
     26 O26         -2.3622  -2.2427  -3.4485 O.2            1 <1>                0.0000
     27 H27          2.7145   3.3587   0.4299 H              1 <1>                0.0000
     28 H28          1.7829   3.0753  -1.0601 H              1 <1>                0.0000
     29 H29          0.9733   3.7258   0.3854 H              1 <1>                0.0000
     30 H30          2.1555   0.9331   0.0548 H              1 <1>                0.0000
     31 H31          2.4886   1.9640   2.3445 H              1 <1>                0.0000
     32 H32          3.0569  -0.5011   0.0234 H              1 <1>                0.0000
     33 H33          3.8857   0.3895   1.3368 H              1 <1>                0.0000
     34 H34          4.9810  -1.8954   0.3906 H              1 <1>                0.0000
     35 H35          4.9588  -1.6057   2.1626 H              1 <1>                0.0000
     36 H36          3.0202  -3.2894   0.4784 H              1 <1>                0.0000
     37 H37          2.2851  -2.4529   3.2810 H              1 <1>                0.0000
     38 H38          1.2346  -2.6450   1.8498 H              1 <1>                0.0000
     39 H39         -0.7042   1.8202   0.6227 H              1 <1>                0.0000
     40 H40          0.0179   2.6038  -1.6163 H              1 <1>                0.0000
     41 H41          0.5846   0.9626  -2.0080 H              1 <1>                0.0000
     42 H42         -2.2846   1.7357  -1.3105 H              1 <1>                0.0000
     43 H43         -1.6756   1.3703  -2.9427 H              1 <1>                0.0000
     44 H44         -1.0552  -0.9127  -2.2000 H              1 <1>                0.0000
     45 H45         -2.3439  -0.0551   0.4307 H              1 <1>                0.0000
     46 H46         -1.7772  -1.6964   0.0390 H              1 <1>                0.0000
     47 H47          0.5253  -0.8283  -0.2668 H              1 <1>                0.0000
     48 H48         -0.0837  -0.4628   1.3654 H              1 <1>                0.0000
     49 H49         -4.6262   0.7753  -2.0521 H              1 <1>                0.0000
     50 H50         -5.1067  -0.7829  -1.3385 H              1 <1>                0.0000
     51 H51         -4.0231   0.3094  -0.4436 H              1 <1>                0.0000
     52 H52         -5.4012  -1.1956  -3.1174 H              1 <1>                0.0000
     53 H53         -4.6931  -1.8016  -4.6339 H              1 <1>                0.0000
     54 H54         -4.9926  -2.9202  -3.2821 H              1 <1>                0.0000
@<TRIPOS>BOND
    1    1    2 1     
    2    1   27 1     
    3    1   28 1     
    4    1   29 1     
    5    2    3 1     
    6    2   16 1     
    7    2   30 1     
    8    3    4 1     
    9    3    8 1     
   10    3   31 1     
   11    4    5 1     
   12    4    6 1     
   13    4    7 1     
   14    8    9 2     
   15    8   10 am    
   16   10   15 1     
   17   10   11 1     
   18   11   12 1     
   19   11   32 1     
   20   11   33 1     
   21   12   13 1     
   22   12   34 1     
   23   12   35 1     
   24   13   14 1     
   25   13   15 1     
   26   13   36 1     
   27   15   37 1     
   28   15   38 1     
   29   16   21 1     
   30   16   17 1     
   31   16   39 1     
   32   17   18 1     
   33   17   40 1     
   34   17   41 1     
   35   18   19 1     
   36   18   42 1     
   37   18   43 1     
   38   19   20 1     
   39   19   22 1     
   40   19   44 1     
   41   20   21 1     
   42   20   45 1     
   43   20   46 1     
   44   21   47 1     
   45   21   48 1     
   46   22   23 1     
   47   22   24 am    
   48   23   49 1     
   49   23   50 1     
   50   23   51 1     
   51   24   25 1     
   52   24   26 2     
   53   25   52 1     
   54   25   53 1     
   55   25   54 1     
@<TRIPOS>SUBSTRUCTURE
      1 ****           1
@<TRIPOS>SET
DONOR_HYDROGENS      STATIC     ATOMS    <user>   **** ""
3 5 6 7
ATOM$RED        STATIC     ATOMS    COLORGROUP SYSTEM
3 5 6 7
