#       Name:                29Z
#       Creating user name   gbret
#       Creation time:       Thu Sep  8 21:13:25 2016


#       File generated by GOLD software.
#

@<TRIPOS>MOLECULE
29Z
    56    60     1
SMALL
NO_CHARGES


@<TRIPOS>ATOM
      1 C1           4.2482   4.6916  -1.9343 C.3            1 <1>                0.0000
      2 N2           4.2681   3.2227  -1.9424 N.4            1 <1>                0.0000
      3 H3           4.7403   2.8973  -2.7725 H              1 <1>                0.0000
      4 C4           4.9786   2.7361  -0.7523 C.3            1 <1>                0.0000
      5 C5           2.8899   2.7143  -1.9320 C.3            1 <1>                0.0000
      6 C6           2.9073   1.2132  -2.0640 C.ar           1 <1>                0.0000
      7 C7           2.8735   0.6291  -3.3165 C.ar           1 <1>                0.0000
      8 C8           2.8894  -0.7479  -3.4376 C.ar           1 <1>                0.0000
      9 C9           2.9396  -1.5407  -2.3063 C.ar           1 <1>                0.0000
     10 C10          2.9744  -0.9566  -1.0539 C.ar           1 <1>                0.0000
     11 C11          2.9628   0.4204  -0.9329 C.ar           1 <1>                0.0000
     12 C12          2.9560  -3.0418  -2.4384 C.3            1 <1>                0.0000
     13 C13          3.2149  -3.8596  -1.1715 C.3            1 <1>                0.0000
     14 C14          1.8134  -3.8211  -1.7841 C.3            1 <1>                0.0000
     15 C15          0.7577  -3.0287  -1.0569 C.2            1 <1>                0.0000
     16 O16          0.8344  -1.8195  -1.0066 O.2            1 <1>                0.0000
     17 N17         -0.2715  -3.6640  -0.4624 N.am           1 <1>                0.0000
     18 C18         -1.2419  -2.9357   0.2060 C.2            1 <1>                0.0000
     19 N19         -1.2551  -1.6520   0.3121 N.2            1 <1>                0.0000
     20 C20         -2.2684  -1.0852   0.9945 C.ar           1 <1>                0.0000
     21 C21         -2.5039   0.2845   1.2478 C.ar           1 <1>                0.0000
     22 C22         -3.5888   0.6818   1.9634 C.ar           1 <1>                0.0000
     23 C23         -4.4952  -0.2579   2.4637 C.ar           1 <1>                0.0000
     24 C24         -4.2854  -1.6102   2.2274 C.ar           1 <1>                0.0000
     25 C25         -3.1771  -2.0237   1.4962 C.ar           1 <1>                0.0000
     26 S26         -2.6340  -3.6319   1.0234 S.3            1 <1>                0.0000
     27 C27         -5.6754   0.1876   3.2438 C.ar           1 <1>                0.0000
     28 C28         -5.8975   1.5471   3.4821 C.ar           1 <1>                0.0000
     29 C29         -7.0135   1.9113   4.2151 C.ar           1 <1>                0.0000
     30 C30         -7.8655   0.9277   4.6842 C.ar           1 <1>                0.0000
     31 N31         -7.6299  -0.3475   4.4434 N.ar           1 <1>                0.0000
     32 C32         -6.5839  -0.7418   3.7462 C.ar           1 <1>                0.0000
     33 H33          5.2707   5.0689  -1.9420 H              1 <1>                0.0000
     34 H34          3.7210   5.0527  -2.8174 H              1 <1>                0.0000
     35 H35          3.7380   5.0431  -1.0375 H              1 <1>                0.0000
     36 H36          4.9934   1.6462  -0.7583 H              1 <1>                0.0000
     37 H37          6.0012   3.1134  -0.7600 H              1 <1>                0.0000
     38 H38          4.4684   3.0876   0.1445 H              1 <1>                0.0000
     39 H39          2.4076   2.9910  -0.9944 H              1 <1>                0.0000
     40 H40          2.3370   3.1460  -2.7662 H              1 <1>                0.0000
     41 H41          2.8342   1.2485  -4.2003 H              1 <1>                0.0000
     42 H42          2.8623  -1.2042  -4.4161 H              1 <1>                0.0000
     43 H43          3.0133  -1.5760  -0.1701 H              1 <1>                0.0000
     44 H44          2.9899   0.8768   0.0455 H              1 <1>                0.0000
     45 H45          3.3552  -3.4269  -3.3767 H              1 <1>                0.0000
     46 H46          3.7847  -4.7830  -1.2761 H              1 <1>                0.0000
     47 H47          3.3734  -3.3119  -0.2425 H              1 <1>                0.0000
     48 H48          1.4612  -4.7190  -2.2917 H              1 <1>                0.0000
     49 H49         -0.3328  -4.6312  -0.5026 H              1 <1>                0.0000
     50 H50         -1.8140   1.0240   0.8689 H              1 <1>                0.0000
     51 H51         -3.7521   1.7334   2.1478 H              1 <1>                0.0000
     52 H52         -4.9822  -2.3403   2.6118 H              1 <1>                0.0000
     53 H53         -5.2153   2.2942   3.1041 H              1 <1>                0.0000
     54 H54         -7.2168   2.9522   4.4191 H              1 <1>                0.0000
     55 H55         -8.7371   1.2083   5.2568 H              1 <1>                0.0000
     56 H56         -6.4247  -1.7953   3.5696 H              1 <1>                0.0000
@<TRIPOS>BOND
    1    1    2 1     
    2    1   33 1     
    3    1   34 1     
    4    1   35 1     
    5    2    3 1     
    6    2    4 1     
    7    2    5 1     
    8    4   36 1     
    9    4   37 1     
   10    4   38 1     
   11    5    6 1     
   12    5   39 1     
   13    5   40 1     
   14    6   11 ar    
   15    6    7 ar    
   16    7    8 ar    
   17    7   41 1     
   18    8    9 ar    
   19    8   42 1     
   20    9   10 ar    
   21    9   12 1     
   22   10   11 ar    
   23   10   43 1     
   24   11   44 1     
   25   12   14 1     
   26   12   13 1     
   27   12   45 1     
   28   13   14 1     
   29   13   46 1     
   30   13   47 1     
   31   14   15 1     
   32   14   48 1     
   33   15   16 2     
   34   15   17 am    
   35   17   18 1     
   36   17   49 1     
   37   18   26 1     
   38   18   19 2     
   39   19   20 1     
   40   20   25 ar    
   41   20   21 ar    
   42   21   22 ar    
   43   21   50 1     
   44   22   23 ar    
   45   22   51 1     
   46   23   24 ar    
   47   23   27 1     
   48   24   25 ar    
   49   24   52 1     
   50   25   26 1     
   51   27   32 ar    
   52   27   28 ar    
   53   28   29 ar    
   54   28   53 1     
   55   29   30 ar    
   56   29   54 1     
   57   30   31 ar    
   58   30   55 1     
   59   31   32 ar    
   60   32   56 1     
@<TRIPOS>SUBSTRUCTURE
      1 ****           1
@<TRIPOS>SET
DONOR_HYDROGENS      STATIC     ATOMS    <user>   **** ""
2 3 49
ATOM$RED        STATIC     ATOMS    COLORGROUP SYSTEM
2 3 49
