#       Name:                2B2
#       Creating user name   gbret
#       Creation time:       Thu Sep  8 21:15:50 2016


#       File generated by GOLD software.
#

@<TRIPOS>MOLECULE
2B2
    34    35     1
SMALL
NO_CHARGES


@<TRIPOS>ATOM
      1 C1           4.1781   5.2814   0.0103 C.3            1 <1>                0.0000
      2 C2           4.1986   3.7745   0.0020 C.2            1 <1>                0.0000
      3 N3           3.1506   3.0268   0.0029 N.2            1 <1>                0.0000
      4 C4           3.3437   1.7150  -0.0051 C.2            1 <1>                0.0000
      5 C5           4.6437   1.3510  -0.0132 C.2            1 <1>                0.0000
      6 S6           5.6161   2.8200  -0.0172 S.3            1 <1>                0.0000
      7 C7           2.2320   0.7362  -0.0047 C.ar           1 <1>                0.0000
      8 C8           2.5076  -0.6324  -0.0071 C.ar           1 <1>                0.0000
      9 C9           1.4793  -1.5392  -0.0063 C.ar           1 <1>                0.0000
     10 C10          0.1546  -1.0931  -0.0031 C.ar           1 <1>                0.0000
     11 C11         -0.1204   0.2775  -0.0007 C.ar           1 <1>                0.0000
     12 C12          0.9094   1.1827   0.0039 C.ar           1 <1>                0.0000
     13 C13         -0.9532  -2.0685  -0.0027 C.2            1 <1>                0.0000
     14 O14         -0.7136  -3.2605  -0.0052 O.2            1 <1>                0.0000
     15 N15         -2.2303  -1.6378   0.0004 N.am           1 <1>                0.0000
     16 C16         -3.3298  -2.6060   0.0008 C.3            1 <1>                0.0000
     17 C17         -4.6659  -1.8604   0.0046 C.3            1 <1>                0.0000
     18 C18         -5.8142  -2.8715   0.0050 C.3            1 <1>                0.0000
     19 F19         -5.7262  -3.6766   1.1458 F              1 <1>                0.0000
     20 F20         -7.0358  -2.1897   0.0085 F              1 <1>                0.0000
     21 F21         -5.7305  -3.6726  -1.1388 F              1 <1>                0.0000
     22 H22          5.2007   5.6587   0.0026 H              1 <1>                0.0000
     23 H23          3.6510   5.6425  -0.8728 H              1 <1>                0.0000
     24 H24          3.6679   5.6329   0.9071 H              1 <1>                0.0000
     25 H25          5.0207   0.3389  -0.0205 H              1 <1>                0.0000
     26 H26          3.5312  -0.9769  -0.0100 H              1 <1>                0.0000
     27 H27          1.6927  -2.5979  -0.0085 H              1 <1>                0.0000
     28 H28         -1.1435   0.6231   0.0018 H              1 <1>                0.0000
     29 H29          0.6972   2.2417   0.0061 H              1 <1>                0.0000
     30 H30         -2.4215  -0.6868   0.0024 H              1 <1>                0.0000
     31 H31         -3.2646  -3.2302  -0.8903 H              1 <1>                0.0000
     32 H32         -3.2613  -3.2332   0.8896 H              1 <1>                0.0000
     33 H33         -4.7311  -1.2362   0.8958 H              1 <1>                0.0000
     34 H34         -4.7344  -1.2331  -0.8842 H              1 <1>                0.0000
@<TRIPOS>BOND
    1    1    2 1     
    2    1   22 1     
    3    1   23 1     
    4    1   24 1     
    5    2    6 1     
    6    2    3 2     
    7    3    4 1     
    8    4    5 2     
    9    4    7 1     
   10    5    6 1     
   11    5   25 1     
   12    7   12 ar    
   13    7    8 ar    
   14    8    9 ar    
   15    8   26 1     
   16    9   10 ar    
   17    9   27 1     
   18   10   11 ar    
   19   10   13 1     
   20   11   12 ar    
   21   11   28 1     
   22   12   29 1     
   23   13   14 2     
   24   13   15 am    
   25   15   16 1     
   26   15   30 1     
   27   16   17 1     
   28   16   31 1     
   29   16   32 1     
   30   17   18 1     
   31   17   33 1     
   32   17   34 1     
   33   18   19 1     
   34   18   20 1     
   35   18   21 1     
@<TRIPOS>SUBSTRUCTURE
      1 ****           1
@<TRIPOS>SET
DONOR_HYDROGENS      STATIC     ATOMS    <user>   **** ""
1 30
ATOM$RED        STATIC     ATOMS    COLORGROUP SYSTEM
1 30
