#       Name:                2C3
#       Creating user name   gbret
#       Creation time:       Thu Sep  8 21:18:12 2016


#       File generated by GOLD software.
#

@<TRIPOS>MOLECULE
2C3
    60    63     1
SMALL
NO_CHARGES


@<TRIPOS>ATOM
      1 C1           8.8893   6.0978   1.7488 C.3            1 <1>                0.0000
      2 O2           8.8589   4.8058   1.1390 O.3            1 <1>                0.0000
      3 C3           7.6781   4.1460   1.1566 C.ar           1 <1>                0.0000
      4 N4           6.6295   4.7287   1.7253 N.ar           1 <1>                0.0000
      5 C5           5.4551   4.1289   1.7695 C.ar           1 <1>                0.0000
      6 C6           5.3318   2.8513   1.1992 C.ar           1 <1>                0.0000
      7 C7           4.1022   2.1601   1.2150 C.2            1 <1>                0.0000
      8 C8           4.0352   0.9019   0.6376 C.2            1 <1>                0.0000
      9 C9           2.7702   0.1502   0.6340 C.2            1 <1>                0.0000
     10 O10          1.7476   0.6786   1.0273 O.2            1 <1>                0.0000
     11 N11          2.7446  -1.1238   0.1950 N.am           1 <1>                0.0000
     12 C12          1.5265  -1.8056   0.0967 C.ar           1 <1>                0.0000
     13 C13          0.3409  -1.0954  -0.0040 C.ar           1 <1>                0.0000
     14 C14         -0.8709  -1.7797  -0.1017 C.ar           1 <1>                0.0000
     15 C15         -0.8817  -3.1761  -0.0973 C.ar           1 <1>                0.0000
     16 C16          0.3034  -3.8749   0.0033 C.ar           1 <1>                0.0000
     17 C17          1.5061  -3.1965   0.0945 C.ar           1 <1>                0.0000
     18 Cl18         2.9928  -4.0840   0.2209 Cl             1 <1>                0.0000
     19 C19         -2.1395  -1.0290  -0.2090 C.2            1 <1>                0.0000
     20 O20         -2.1280   0.1865  -0.2122 O.2            1 <1>                0.0000
     21 N21         -3.3090  -1.6922  -0.3033 N.am           1 <1>                0.0000
     22 C22         -4.5665  -0.9481  -0.4096 C.3            1 <1>                0.0000
     23 C23         -4.8224  -0.5857  -1.8739 C.3            1 <1>                0.0000
     24 C24         -3.7385   0.3800  -2.3572 C.3            1 <1>                0.0000
     25 N25         -3.9842   0.7280  -3.7631 N.4            1 <1>                0.0000
     26 H26         -3.2694   1.3648  -4.0818 H              1 <1>                0.0000
     27 H27         -3.9635  -0.1095  -4.3254 H              1 <1>                0.0000
     28 H28         -4.8884   1.1676  -3.8477 H              1 <1>                0.0000
     29 C29         -5.6992  -1.8001   0.1023 C.ar           1 <1>                0.0000
     30 C30         -5.7317  -3.1521  -0.1851 C.ar           1 <1>                0.0000
     31 C31         -6.7700  -3.9343   0.2844 C.ar           1 <1>                0.0000
     32 C32         -7.7769  -3.3651   1.0414 C.ar           1 <1>                0.0000
     33 C33         -7.7450  -2.0125   1.3294 C.ar           1 <1>                0.0000
     34 Cl34        -9.0088  -1.2970   2.2805 Cl             1 <1>                0.0000
     35 C35         -6.7022  -1.2310   0.8638 C.ar           1 <1>                0.0000
     36 C36          5.2407   0.3294   0.0299 C.2            1 <1>                0.0000
     37 O37          5.1961  -0.7748  -0.4812 O.2            1 <1>                0.0000
     38 N38          6.3967   1.0200   0.0344 N.am           1 <1>                0.0000
     39 H39          7.1878   0.6314  -0.3705 H              1 <1>                0.0000
     40 C40          6.4706   2.2651   0.6036 C.ar           1 <1>                0.0000
     41 N41          7.6108   2.9477   0.6020 N.ar           1 <1>                0.0000
     42 H42          9.8927   6.5154   1.6654 H              1 <1>                0.0000
     43 H43          8.1796   6.7541   1.2452 H              1 <1>                0.0000
     44 H44          8.6189   6.0094   2.8010 H              1 <1>                0.0000
     45 H45          4.6072   4.6098   2.2344 H              1 <1>                0.0000
     46 H46          3.2285   2.6035   1.6693 H              1 <1>                0.0000
     47 H47          3.5705  -1.5681  -0.0529 H              1 <1>                0.0000
     48 H48          0.3550  -0.0155  -0.0066 H              1 <1>                0.0000
     49 H49         -1.8180  -3.7091  -0.1724 H              1 <1>                0.0000
     50 H50          0.2929  -4.9548   0.0065 H              1 <1>                0.0000
     51 H51         -3.3182  -2.6621  -0.3007 H              1 <1>                0.0000
     52 H52         -4.5005  -0.0364   0.1841 H              1 <1>                0.0000
     53 H53         -4.8000  -1.4904  -2.4814 H              1 <1>                0.0000
     54 H54         -5.7992  -0.1107  -1.9653 H              1 <1>                0.0000
     55 H55         -3.7608   1.2848  -1.7497 H              1 <1>                0.0000
     56 H56         -2.7617  -0.0950  -2.2658 H              1 <1>                0.0000
     57 H57         -4.9456  -3.5972  -0.7771 H              1 <1>                0.0000
     58 H58         -6.7949  -4.9904   0.0596 H              1 <1>                0.0000
     59 H59         -8.5886  -3.9762   1.4077 H              1 <1>                0.0000
     60 H60         -6.6767  -0.1749   1.0883 H              1 <1>                0.0000
@<TRIPOS>BOND
    1    1    2 1     
    2    1   42 1     
    3    1   43 1     
    4    1   44 1     
    5    2    3 1     
    6    3   41 ar    
    7    3    4 ar    
    8    4    5 ar    
    9    5    6 ar    
   10    5   45 1     
   11    6   40 ar    
   12    6    7 1     
   13    7    8 2     
   14    7   46 1     
   15    8    9 1     
   16    8   36 1     
   17    9   10 2     
   18    9   11 am    
   19   11   12 1     
   20   11   47 1     
   21   12   17 ar    
   22   12   13 ar    
   23   13   14 ar    
   24   13   48 1     
   25   14   15 ar    
   26   14   19 1     
   27   15   16 ar    
   28   15   49 1     
   29   16   17 ar    
   30   16   50 1     
   31   17   18 1     
   32   19   20 2     
   33   19   21 am    
   34   21   22 1     
   35   21   51 1     
   36   22   23 1     
   37   22   29 1     
   38   22   52 1     
   39   23   24 1     
   40   23   53 1     
   41   23   54 1     
   42   24   25 1     
   43   24   55 1     
   44   24   56 1     
   45   25   26 1     
   46   25   27 1     
   47   25   28 1     
   48   29   35 ar    
   49   29   30 ar    
   50   30   31 ar    
   51   30   57 1     
   52   31   32 ar    
   53   31   58 1     
   54   32   33 ar    
   55   32   59 1     
   56   33   34 1     
   57   33   35 ar    
   58   35   60 1     
   59   36   37 2     
   60   36   38 am    
   61   38   39 1     
   62   38   40 1     
   63   40   41 ar    
@<TRIPOS>SUBSTRUCTURE
      1 ****           1
@<TRIPOS>SET
DONOR_HYDROGENS      STATIC     ATOMS    <user>   **** ""
6 47 51 26 27 28 39
ATOM$RED        STATIC     ATOMS    COLORGROUP SYSTEM
6 47 51 26 27 28 39
