#       Name:                2CK
#       Creating user name   gbret
#       Creation time:       Thu Sep  8 21:19:20 2016


#       File generated by GOLD software.
#

@<TRIPOS>MOLECULE
2CK
    22    23     1
SMALL
NO_CHARGES


@<TRIPOS>ATOM
      1 C1          -1.6860   0.7352   1.2262 C.3            1 <1>                0.0000
      2 C2          -0.2434   1.2425   1.2152 C.3            1 <1>                0.0000
      3 C3           0.5238   0.5741   0.1030 C.ar           1 <1>                0.0000
      4 C4           1.7274   1.1298  -0.3018 C.ar           1 <1>                0.0000
      5 C5           2.4594   0.5436  -1.3151 C.ar           1 <1>                0.0000
      6 C6           1.9894  -0.6030  -1.9284 C.ar           1 <1>                0.0000
      7 C7           0.7903  -1.1560  -1.5267 C.ar           1 <1>                0.0000
      8 C8           0.0528  -0.5675  -0.5100 C.ar           1 <1>                0.0000
      9 C9          -1.2537  -1.2002  -0.1093 C.3            1 <1>                0.0000
     10 N10         -1.6660  -0.7356   1.2181 N.4            1 <1>                0.0000
     11 H11         -1.0115  -1.0677   1.9105 H              1 <1>                0.0000
     12 H12         -2.5877  -1.0884   1.4281 H              1 <1>                0.0000
     13 H13         -2.1916   1.0894   2.1246 H              1 <1>                0.0000
     14 H14         -2.2086   1.0989   0.3415 H              1 <1>                0.0000
     15 H15         -0.2399   2.3215   1.0604 H              1 <1>                0.0000
     16 H16          0.2289   1.0128   2.1703 H              1 <1>                0.0000
     17 H17          2.0942   2.0255   0.1774 H              1 <1>                0.0000
     18 H18          3.3964   0.9799  -1.6282 H              1 <1>                0.0000
     19 H19          2.5596  -1.0650  -2.7207 H              1 <1>                0.0000
     20 H20          0.4242  -2.0515  -2.0067 H              1 <1>                0.0000
     21 H21         -2.0201  -0.9337  -0.8370 H              1 <1>                0.0000
     22 H22         -1.1375  -2.2838  -0.0910 H              1 <1>                0.0000
@<TRIPOS>BOND
    1    1   10 1     
    2    1    2 1     
    3    1   13 1     
    4    1   14 1     
    5    2    3 1     
    6    2   15 1     
    7    2   16 1     
    8    3    8 ar    
    9    3    4 ar    
   10    4    5 ar    
   11    4   17 1     
   12    5    6 ar    
   13    5   18 1     
   14    6    7 ar    
   15    6   19 1     
   16    7    8 ar    
   17    7   20 1     
   18    8    9 1     
   19    9   10 1     
   20    9   21 1     
   21    9   22 1     
   22   10   11 1     
   23   10   12 1     
@<TRIPOS>SUBSTRUCTURE
      1 ****           1
@<TRIPOS>SET
DONOR_HYDROGENS      STATIC     ATOMS    <user>   **** ""
2 11 12
ATOM$RED        STATIC     ATOMS    COLORGROUP SYSTEM
2 11 12
