#       Name:                2CY
#       Creating user name   gbret
#       Creation time:       Thu Sep  8 21:20:19 2016


#       File generated by GOLD software.
#

@<TRIPOS>MOLECULE
2CY
    41    43     1
SMALL
NO_CHARGES


@<TRIPOS>ATOM
      1 N1           1.3120   7.4677  -0.2628 N.pl3          1 <1>                0.0000
      2 C2           1.3302   6.0858  -0.2083 C.ar           1 <1>                0.0000
      3 N3           0.1715   5.4328  -0.2055 N.ar           1 <1>                0.0000
      4 C4           0.1248   4.1091  -0.1551 C.ar           1 <1>                0.0000
      5 N5          -1.0829   3.4443  -0.1532 N.pl3          1 <1>                0.0000
      6 C6           1.3455   3.3954  -0.1036 C.ar           1 <1>                0.0000
      7 C7           1.3854   1.9930  -0.0489 C.ar           1 <1>                0.0000
      8 O8           0.2345   1.2737  -0.0440 O.3            1 <1>                0.0000
      9 C9           0.3586  -0.1488   0.0132 C.3            1 <1>                0.0000
     10 C10         -1.0338  -0.7828   0.0100 C.3            1 <1>                0.0000
     11 C11         -0.9008  -2.3058   0.0712 C.3            1 <1>                0.0000
     12 O12         -2.2014  -2.8980   0.0683 O.3            1 <1>                0.0000
     13 C13         -2.2616  -4.2546   0.1192 C.ar           1 <1>                0.0000
     14 C14         -1.0927  -5.0003   0.1767 C.ar           1 <1>                0.0000
     15 C15         -1.1551  -6.3793   0.2284 C.ar           1 <1>                0.0000
     16 C16         -2.3812  -7.0181   0.2226 C.ar           1 <1>                0.0000
     17 C17         -3.5497  -6.2773   0.1653 C.ar           1 <1>                0.0000
     18 F18         -4.7468  -6.9034   0.1596 F              1 <1>                0.0000
     19 C19         -3.4914  -4.8954   0.1196 C.ar           1 <1>                0.0000
     20 C20          2.6081   1.3535  -0.0006 C.ar           1 <1>                0.0000
     21 C21          3.7905   2.0836  -0.0053 C.ar           1 <1>                0.0000
     22 C22          3.7767   3.4468  -0.0576 C.ar           1 <1>                0.0000
     23 C23          2.5555   4.1307  -0.1085 C.ar           1 <1>                0.0000
     24 N24          2.4964   5.4702  -0.1666 N.ar           1 <1>                0.0000
     25 H25          2.1454   7.9639  -0.2698 H              1 <1>                0.0000
     26 H26          0.4657   7.9405  -0.2981 H              1 <1>                0.0000
     27 H27         -1.9126   3.9456  -0.1891 H              1 <1>                0.0000
     28 H28         -1.1032   2.4752  -0.1162 H              1 <1>                0.0000
     29 H29          0.9196  -0.4996  -0.8531 H              1 <1>                0.0000
     30 H30          0.8845  -0.4312   0.9252 H              1 <1>                0.0000
     31 H31         -1.5947  -0.4320   0.8763 H              1 <1>                0.0000
     32 H32         -1.5596  -0.5003  -0.9020 H              1 <1>                0.0000
     33 H33         -0.3399  -2.6566  -0.7950 H              1 <1>                0.0000
     34 H34         -0.3750  -2.5883   0.9833 H              1 <1>                0.0000
     35 H35         -0.1343  -4.5026   0.1807 H              1 <1>                0.0000
     36 H36         -0.2451  -6.9591   0.2732 H              1 <1>                0.0000
     37 H37         -2.4276  -8.0964   0.2623 H              1 <1>                0.0000
     38 H38         -4.4024  -4.3170   0.0749 H              1 <1>                0.0000
     39 H39          2.6460   0.2750   0.0416 H              1 <1>                0.0000
     40 H40          4.7360   1.5633   0.0333 H              1 <1>                0.0000
     41 H41          4.7057   3.9975  -0.0604 H              1 <1>                0.0000
@<TRIPOS>BOND
    1    1    2 1     
    2    1   25 1     
    3    1   26 1     
    4    2   24 ar    
    5    2    3 ar    
    6    3    4 ar    
    7    4    5 1     
    8    4    6 ar    
    9    5   27 1     
   10    5   28 1     
   11    6   23 ar    
   12    6    7 ar    
   13    7    8 1     
   14    7   20 ar    
   15    8    9 1     
   16    9   10 1     
   17    9   29 1     
   18    9   30 1     
   19   10   11 1     
   20   10   31 1     
   21   10   32 1     
   22   11   12 1     
   23   11   33 1     
   24   11   34 1     
   25   12   13 1     
   26   13   19 ar    
   27   13   14 ar    
   28   14   15 ar    
   29   14   35 1     
   30   15   16 ar    
   31   15   36 1     
   32   16   17 ar    
   33   16   37 1     
   34   17   18 1     
   35   17   19 ar    
   36   19   38 1     
   37   20   21 ar    
   38   20   39 1     
   39   21   22 ar    
   40   21   40 1     
   41   22   23 ar    
   42   22   41 1     
   43   23   24 ar    
@<TRIPOS>SUBSTRUCTURE
      1 ****           1
@<TRIPOS>SET
DONOR_HYDROGENS      STATIC     ATOMS    <user>   **** ""
4 25 26 27 28
ATOM$RED        STATIC     ATOMS    COLORGROUP SYSTEM
4 25 26 27 28
