#       Name:                2DH
#       Creating user name   gbret
#       Creation time:       Thu Sep  8 21:21:32 2016


#       File generated by GOLD software.
#

@<TRIPOS>MOLECULE
2DH
    45    47     1
SMALL
NO_CHARGES


@<TRIPOS>ATOM
      1 C1          -2.9784   6.2327   2.6626 C.3            1 <1>                0.0000
      2 O2          -3.0474   4.8195   2.8637 O.3            1 <1>                0.0000
      3 C3          -2.5149   4.0310   1.8921 C.ar           1 <1>                0.0000
      4 C4          -1.9316   4.6140   0.7685 C.ar           1 <1>                0.0000
      5 C5          -1.3880   3.8316  -0.2242 C.ar           1 <1>                0.0000
      6 C6          -1.4172   2.4443  -0.1123 C.ar           1 <1>                0.0000
      7 N7          -0.9663   1.4266  -0.9225 N.pl3          1 <1>                0.0000
      8 C8          -0.2880   1.5979  -2.2096 C.3            1 <1>                0.0000
      9 C9           1.1891   1.7865  -1.9779 C.2            1 <1>                0.0000
     10 O10          1.6340   1.7786  -0.8428 O.co2          1 <1>                0.0000
     11 O11          1.9393   1.9470  -2.9256 O.co2          1 <1>                0.0000
     12 C12         -1.2586   0.2177  -0.3219 C.2            1 <1>                0.0000
     13 C13         -1.8894   0.4480   0.8594 C.2            1 <1>                0.0000
     14 C14         -2.0048   1.8499   1.0209 C.ar           1 <1>                0.0000
     15 C15         -2.5499   2.6596   2.0265 C.ar           1 <1>                0.0000
     16 C16         -0.9390  -1.1074  -0.8735 C.2            1 <1>                0.0000
     17 O17         -0.2820  -1.1995  -1.8932 O.2            1 <1>                0.0000
     18 N18         -1.3739  -2.2199  -0.2493 N.am           1 <1>                0.0000
     19 S19         -0.9056  -3.7119  -0.7942 S.o2           1 <1>                0.0000
     20 O20         -1.4948  -4.6625   0.0824 O.2            1 <1>                0.0000
     21 O21         -1.1210  -3.7119  -2.1988 O.2            1 <1>                0.0000
     22 C22          0.8365  -3.8302  -0.5581 C.ar           1 <1>                0.0000
     23 C23          1.6990  -3.4160  -1.5558 C.ar           1 <1>                0.0000
     24 C24          3.0657  -3.5088  -1.3706 C.ar           1 <1>                0.0000
     25 C25          3.5700  -4.0153  -0.1873 C.ar           1 <1>                0.0000
     26 C26          2.7076  -4.4286   0.8108 C.ar           1 <1>                0.0000
     27 C27          1.3409  -4.3319   0.6272 C.ar           1 <1>                0.0000
     28 C28          5.0600  -4.1174   0.0143 C.3            1 <1>                0.0000
     29 F29          5.5347  -2.9344   0.5908 F              1 <1>                0.0000
     30 F30          5.3433  -5.1949   0.8604 F              1 <1>                0.0000
     31 F31          5.6851  -4.3176  -1.2212 F              1 <1>                0.0000
     32 H32         -1.9352   6.5370   2.5774 H              1 <1>                0.0000
     33 H33         -3.5096   6.4959   1.7479 H              1 <1>                0.0000
     34 H34         -3.4378   6.7429   3.5092 H              1 <1>                0.0000
     35 H35         -1.9063   5.6898   0.6761 H              1 <1>                0.0000
     36 H36         -0.9387   4.2938  -1.0908 H              1 <1>                0.0000
     37 H37         -0.4490   0.7132  -2.8257 H              1 <1>                0.0000
     38 H38         -0.6906   2.4735  -2.7189 H              1 <1>                0.0000
     39 H39         -2.2401  -0.3037   1.5510 H              1 <1>                0.0000
     40 H40         -2.9983   2.2113   2.9008 H              1 <1>                0.0000
     41 H41         -1.9613  -2.1467   0.5191 H              1 <1>                0.0000
     42 H42          1.3050  -3.0203  -2.4803 H              1 <1>                0.0000
     43 H43          3.7395  -3.1859  -2.1504 H              1 <1>                0.0000
     44 H44          3.1015  -4.8247   1.7351 H              1 <1>                0.0000
     45 H45          0.6671  -4.6548   1.4070 H              1 <1>                0.0000
@<TRIPOS>BOND
    1    1    2 1     
    2    1   32 1     
    3    1   33 1     
    4    1   34 1     
    5    2    3 1     
    6    3   15 ar    
    7    3    4 ar    
    8    4    5 ar    
    9    4   35 1     
   10    5    6 ar    
   11    5   36 1     
   12    6   14 ar    
   13    6    7 1     
   14    7    8 1     
   15    7   12 1     
   16    8    9 1     
   17    8   37 1     
   18    8   38 1     
   19    9   10 ar    
   20    9   11 ar    
   21   12   13 2     
   22   12   16 1     
   23   13   14 1     
   24   13   39 1     
   25   14   15 ar    
   26   15   40 1     
   27   16   17 2     
   28   16   18 am    
   29   18   19 1     
   30   18   41 1     
   31   19   20 2     
   32   19   21 2     
   33   19   22 1     
   34   22   27 ar    
   35   22   23 ar    
   36   23   24 ar    
   37   23   42 1     
   38   24   25 ar    
   39   24   43 1     
   40   25   26 ar    
   41   25   28 1     
   42   26   27 ar    
   43   26   44 1     
   44   27   45 1     
   45   28   29 1     
   46   28   30 1     
   47   28   31 1     
@<TRIPOS>SUBSTRUCTURE
      1 ****           1
@<TRIPOS>SET
DONOR_HYDROGENS      STATIC     ATOMS    <user>   **** ""
1 41
ATOM$RED        STATIC     ATOMS    COLORGROUP SYSTEM
1 41
