#       Name:                2DY
#       Creating user name   gbret
#       Creation time:       Thu Sep  8 21:22:47 2016


#       File generated by GOLD software.
#

@<TRIPOS>MOLECULE
2DY
    89    94     1
SMALL
NO_CHARGES


@<TRIPOS>ATOM
      1 C1          -1.7939   7.0636  -3.8362 C.3            1 <1>                0.0000
      2 C2          -1.0031   5.7871  -3.5429 C.3            1 <1>                0.0000
      3 C3          -1.9482   4.5842  -3.5699 C.3            1 <1>                0.0000
      4 N4          -2.4791   4.4089  -4.9283 N.4            1 <1>                0.0000
      5 H5          -2.9121   5.2677  -5.2335 H              1 <1>                0.0000
      6 H6          -1.7257   4.1706  -5.5557 H              1 <1>                0.0000
      7 C7          -3.4766   3.3305  -4.9288 C.3            1 <1>                0.0000
      8 C8          -1.1952   3.3445  -3.1610 C.2            1 <1>                0.0000
      9 O9          -0.7940   2.5724  -4.0059 O.2            1 <1>                0.0000
     10 N10         -0.9675   3.0938  -1.8565 N.am           1 <1>                0.0000
     11 C11         -0.2355   1.8886  -1.4591 C.3            1 <1>                0.0000
     12 C12          1.2686   2.1629  -1.5178 C.3            1 <1>                0.0000
     13 C13          2.0303   0.9414  -0.9995 C.3            1 <1>                0.0000
     14 C14          3.5344   1.2157  -1.0582 C.3            1 <1>                0.0000
     15 C15          3.9454   1.4969  -2.5049 C.3            1 <1>                0.0000
     16 C16          3.1836   2.7183  -3.0233 C.3            1 <1>                0.0000
     17 C17          1.6796   2.4441  -2.9645 C.3            1 <1>                0.0000
     18 C18         -0.6219   1.5068  -0.0534 C.2            1 <1>                0.0000
     19 O19         -0.9752   2.3611   0.7317 O.2            1 <1>                0.0000
     20 N20         -0.5750   0.2160   0.3314 N.am           1 <1>                0.0000
     21 C21         -0.0383  -0.8101  -0.5855 C.3            1 <1>                0.0000
     22 C22         -1.0699  -1.9347  -0.6310 C.3            1 <1>                0.0000
     23 C23         -0.5361  -3.2194  -1.2963 C.3            1 <1>                0.0000
     24 C24         -1.2313  -4.2885  -0.4847 C.ar           1 <1>                0.0000
     25 C25         -1.4561  -5.6160  -0.7748 C.ar           1 <1>                0.0000
     26 C26         -2.1536  -6.3637   0.1670 C.ar           1 <1>                0.0000
     27 C27         -2.6026  -5.7987   1.3433 C.ar           1 <1>                0.0000
     28 C28         -2.3754  -4.4670   1.6505 C.ar           1 <1>                0.0000
     29 C29         -1.6685  -3.7035   0.7214 C.ar           1 <1>                0.0000
     30 N30         -1.2498  -2.4034   0.7692 N.3            1 <1>                0.0000
     31 C31         -1.9676  -1.4105   1.5459 C.3            1 <1>                0.0000
     32 C32         -1.0517  -0.1717   1.6651 C.3            1 <1>                0.0000
     33 C33          0.1232  -0.5003   2.5498 C.2            1 <1>                0.0000
     34 O34          1.2518  -0.4233   2.1125 O.2            1 <1>                0.0000
     35 N35         -0.0802  -0.8796   3.8270 N.am           1 <1>                0.0000
     36 C36          1.0620  -1.1990   4.6870 C.3            1 <1>                0.0000
     37 C37          0.6730  -0.9825   6.1516 C.3            1 <1>                0.0000
     38 C38          1.7653  -1.5972   7.0361 C.3            1 <1>                0.0000
     39 O39          1.7772  -3.0091   6.8213 O.3            1 <1>                0.0000
     40 C40          1.7996  -3.4557   5.5386 C.ar           1 <1>                0.0000
     41 C41          2.1722  -4.7753   5.3016 C.ar           1 <1>                0.0000
     42 C42          2.2024  -5.2674   4.0130 C.ar           1 <1>                0.0000
     43 C43          1.8618  -4.4478   2.9526 C.ar           1 <1>                0.0000
     44 C44          1.4940  -3.1368   3.1839 C.ar           1 <1>                0.0000
     45 C45          1.4629  -2.6369   4.4752 C.ar           1 <1>                0.0000
     46 H46         -1.1206   7.9206  -3.8170 H              1 <1>                0.0000
     47 H47         -2.2561   6.9867  -4.8204 H              1 <1>                0.0000
     48 H48         -2.5683   7.1930  -3.0802 H              1 <1>                0.0000
     49 H49         -0.2286   5.6577  -4.2989 H              1 <1>                0.0000
     50 H50         -0.5409   5.8641  -2.5588 H              1 <1>                0.0000
     51 H51         -2.7722   4.7539  -2.8768 H              1 <1>                0.0000
     52 H52         -3.0088   2.4028  -4.5991 H              1 <1>                0.0000
     53 H53         -4.2904   3.5880  -4.2510 H              1 <1>                0.0000
     54 H54         -3.8705   3.2005  -5.9368 H              1 <1>                0.0000
     55 H55         -1.2884   3.7113  -1.1808 H              1 <1>                0.0000
     56 H56         -0.4829   1.0727  -2.1382 H              1 <1>                0.0000
     57 H57          1.5046   3.0281  -0.8983 H              1 <1>                0.0000
     58 H58          1.7375   0.7411   0.0312 H              1 <1>                0.0000
     59 H59          1.7943   0.0762  -1.6190 H              1 <1>                0.0000
     60 H60          3.7704   2.0809  -0.4387 H              1 <1>                0.0000
     61 H61          4.0771   0.3455  -0.6889 H              1 <1>                0.0000
     62 H62          5.0169   1.6923  -2.5468 H              1 <1>                0.0000
     63 H63          3.7094   0.6317  -3.1244 H              1 <1>                0.0000
     64 H64          3.4197   3.5836  -2.4038 H              1 <1>                0.0000
     65 H65          3.4764   2.9187  -4.0539 H              1 <1>                0.0000
     66 H66          1.4435   1.5788  -3.5840 H              1 <1>                0.0000
     67 H67          1.1369   3.3143  -3.3338 H              1 <1>                0.0000
     68 H68          0.0973  -0.3873  -1.5809 H              1 <1>                0.0000
     69 H69          0.9110  -1.1892  -0.2071 H              1 <1>                0.0000
     70 H70         -2.0093  -1.5981  -1.0694 H              1 <1>                0.0000
     71 H71         -0.8322  -3.2693  -2.3442 H              1 <1>                0.0000
     72 H72          0.5466  -3.2923  -1.1936 H              1 <1>                0.0000
     73 H73         -1.1054  -6.0576  -1.6959 H              1 <1>                0.0000
     74 H74         -2.3483  -7.4084  -0.0259 H              1 <1>                0.0000
     75 H75         -3.1477  -6.4127   2.0449 H              1 <1>                0.0000
     76 H76         -2.7324  -4.0362   2.5743 H              1 <1>                0.0000
     77 H77         -2.8944  -1.1422   1.0388 H              1 <1>                0.0000
     78 H78         -2.1875  -1.8041   2.5383 H              1 <1>                0.0000
     79 H79         -1.6136   0.6540   2.1016 H              1 <1>                0.0000
     80 H80         -0.9829  -0.9412   4.1767 H              1 <1>                0.0000
     81 H81          1.8991  -0.5481   4.4347 H              1 <1>                0.0000
     82 H82          0.5920   0.0850   6.3562 H              1 <1>                0.0000
     83 H83         -0.2809  -1.4694   6.3541 H              1 <1>                0.0000
     84 H84          2.7346  -1.1769   6.7679 H              1 <1>                0.0000
     85 H85          1.5507  -1.3870   8.0839 H              1 <1>                0.0000
     86 H86          2.4389  -5.4161   6.1289 H              1 <1>                0.0000
     87 H87          2.4916  -6.2922   3.8327 H              1 <1>                0.0000
     88 H88          1.8838  -4.8326   1.9437 H              1 <1>                0.0000
     89 H89          1.2297  -2.4984   2.3539 H              1 <1>                0.0000
@<TRIPOS>BOND
    1    1    2 1     
    2    1   46 1     
    3    1   47 1     
    4    1   48 1     
    5    2    3 1     
    6    2   49 1     
    7    2   50 1     
    8    3    4 1     
    9    3    8 1     
   10    3   51 1     
   11    4    5 1     
   12    4    6 1     
   13    4    7 1     
   14    7   52 1     
   15    7   53 1     
   16    7   54 1     
   17    8    9 2     
   18    8   10 am    
   19   10   11 1     
   20   10   55 1     
   21   11   12 1     
   22   11   18 1     
   23   11   56 1     
   24   12   17 1     
   25   12   13 1     
   26   12   57 1     
   27   13   14 1     
   28   13   58 1     
   29   13   59 1     
   30   14   15 1     
   31   14   60 1     
   32   14   61 1     
   33   15   16 1     
   34   15   62 1     
   35   15   63 1     
   36   16   17 1     
   37   16   64 1     
   38   16   65 1     
   39   17   66 1     
   40   17   67 1     
   41   18   19 2     
   42   18   20 am    
   43   20   32 1     
   44   20   21 1     
   45   21   22 1     
   46   21   68 1     
   47   21   69 1     
   48   22   30 1     
   49   22   23 1     
   50   22   70 1     
   51   23   24 1     
   52   23   71 1     
   53   23   72 1     
   54   24   29 ar    
   55   24   25 ar    
   56   25   26 ar    
   57   25   73 1     
   58   26   27 ar    
   59   26   74 1     
   60   27   28 ar    
   61   27   75 1     
   62   28   29 ar    
   63   28   76 1     
   64   29   30 1     
   65   30   31 1     
   66   31   32 1     
   67   31   77 1     
   68   31   78 1     
   69   32   33 1     
   70   32   79 1     
   71   33   34 2     
   72   33   35 am    
   73   35   36 1     
   74   35   80 1     
   75   36   45 1     
   76   36   37 1     
   77   36   81 1     
   78   37   38 1     
   79   37   82 1     
   80   37   83 1     
   81   38   39 1     
   82   38   84 1     
   83   38   85 1     
   84   39   40 1     
   85   40   45 ar    
   86   40   41 ar    
   87   41   42 ar    
   88   41   86 1     
   89   42   43 ar    
   90   42   87 1     
   91   43   44 ar    
   92   43   88 1     
   93   44   45 ar    
   94   44   89 1     
@<TRIPOS>SUBSTRUCTURE
      1 ****           1
@<TRIPOS>SET
DONOR_HYDROGENS      STATIC     ATOMS    <user>   **** ""
4 5 6 55 80
ATOM$RED        STATIC     ATOMS    COLORGROUP SYSTEM
4 5 6 55 80
