#       Name:                2G8
#       Creating user name   gbret
#       Creation time:       Thu Sep  8 21:27:50 2016


#       File generated by GOLD software.
#

@<TRIPOS>MOLECULE
2G8
    56    56     1
SMALL
NO_CHARGES


@<TRIPOS>ATOM
      1 C1          -1.4894   6.7804  -4.0331 C.3            1 <1>                0.0000
      2 C2          -1.2161   5.2762  -4.0912 C.3            1 <1>                0.0000
      3 C3          -0.3734   4.8638  -2.8826 C.3            1 <1>                0.0000
      4 N4          -0.1117   3.4235  -2.9383 N.am           1 <1>                0.0000
      5 C5           0.6169   2.8330  -1.9703 C.2            1 <1>                0.0000
      6 O6           1.0558   3.4941  -1.0531 O.2            1 <1>                0.0000
      7 C7           0.8861   1.3514  -2.0275 C.3            1 <1>                0.0000
      8 C8           1.6440   1.0201  -3.3147 C.3            1 <1>                0.0000
      9 C9           1.7868  -0.4975  -3.4463 C.3            1 <1>                0.0000
     10 C10          0.4034  -1.1264  -3.6243 C.3            1 <1>                0.0000
     11 C11          2.6559  -0.8245  -4.6622 C.3            1 <1>                0.0000
     12 N12          1.6952   0.9555  -0.8671 N.3            1 <1>                0.0000
     13 P13          0.7193   0.4090   0.3904 P.3            1 <1>                0.0000
     14 O14         -0.1647   1.5700   0.8981 O.co2          1 <1>                0.0000
     15 O15         -0.1807  -0.7394  -0.1178 O.co2          1 <1>                0.0000
     16 C16          1.7672  -0.1977   1.7532 C.3            1 <1>                0.0000
     17 N17          0.9176  -0.6733   2.8479 N.am           1 <1>                0.0000
     18 C18          0.6024  -1.9807   2.9370 C.2            1 <1>                0.0000
     19 O19          1.0228  -2.7648   2.1095 O.2            1 <1>                0.0000
     20 O20         -0.1783  -2.4178   3.9431 O.3            1 <1>                0.0000
     21 C21         -0.4768  -3.8384   3.9763 C.3            1 <1>                0.0000
     22 C22         -1.3559  -4.1394   5.1628 C.ar           1 <1>                0.0000
     23 C23         -0.7868  -4.4604   6.3809 C.ar           1 <1>                0.0000
     24 C24         -1.5932  -4.7365   7.4692 C.ar           1 <1>                0.0000
     25 C25         -2.9687  -4.6910   7.3395 C.ar           1 <1>                0.0000
     26 C26         -3.5378  -4.3690   6.1216 C.ar           1 <1>                0.0000
     27 C27         -2.7314  -4.0888   5.0344 C.ar           1 <1>                0.0000
     28 H28         -0.5438   7.3223  -4.0476 H              1 <1>                0.0000
     29 H29         -2.0897   7.0742  -4.8941 H              1 <1>                0.0000
     30 H30         -2.0294   7.0164  -3.1161 H              1 <1>                0.0000
     31 H31         -2.1617   4.7342  -4.0767 H              1 <1>                0.0000
     32 H32         -0.6761   5.0402  -5.0082 H              1 <1>                0.0000
     33 H33          0.5723   5.4058  -2.8971 H              1 <1>                0.0000
     34 H34         -0.9133   5.0998  -1.9656 H              1 <1>                0.0000
     35 H35         -0.4627   2.8947  -3.6718 H              1 <1>                0.0000
     36 H36         -0.0595   0.8094  -2.0130 H              1 <1>                0.0000
     37 H37          1.0930   1.4088  -4.1711 H              1 <1>                0.0000
     38 H38          2.6333   1.4766  -3.2815 H              1 <1>                0.0000
     39 H39          2.2548  -0.8978  -2.5469 H              1 <1>                0.0000
     40 H40         -0.0647  -0.7261  -4.5236 H              1 <1>                0.0000
     41 H41          0.5051  -2.2076  -3.7180 H              1 <1>                0.0000
     42 H42         -0.2158  -0.8934  -2.7580 H              1 <1>                0.0000
     43 H43          3.6415  -0.3765  -4.5354 H              1 <1>                0.0000
     44 H44          2.7576  -1.9057  -4.7560 H              1 <1>                0.0000
     45 H45          2.1879  -0.4243  -5.5616 H              1 <1>                0.0000
     46 H46          2.3785   0.2587  -1.1235 H              1 <1>                0.0000
     47 H47          2.3908  -1.0167   1.3951 H              1 <1>                0.0000
     48 H48          2.4021   0.6125   2.1118 H              1 <1>                0.0000
     49 H49          0.5821  -0.0474   3.5085 H              1 <1>                0.0000
     50 H50         -0.9938  -4.1226   3.0597 H              1 <1>                0.0000
     51 H51          0.4518  -4.4030   4.0597 H              1 <1>                0.0000
     52 H52          0.2878  -4.4960   6.4823 H              1 <1>                0.0000
     53 H53         -1.1486  -4.9880   8.4208 H              1 <1>                0.0000
     54 H54         -3.5987  -4.9074   8.1896 H              1 <1>                0.0000
     55 H55         -4.6125  -4.3338   6.0202 H              1 <1>                0.0000
     56 H56         -3.1760  -3.8373   4.0828 H              1 <1>                0.0000
@<TRIPOS>BOND
    1    1    2 1     
    2    1   28 1     
    3    1   29 1     
    4    1   30 1     
    5    2    3 1     
    6    2   31 1     
    7    2   32 1     
    8    3    4 1     
    9    3   33 1     
   10    3   34 1     
   11    4    5 am    
   12    4   35 1     
   13    5    6 2     
   14    5    7 1     
   15    7    8 1     
   16    7   12 1     
   17    7   36 1     
   18    8    9 1     
   19    8   37 1     
   20    8   38 1     
   21    9   10 1     
   22    9   11 1     
   23    9   39 1     
   24   10   40 1     
   25   10   41 1     
   26   10   42 1     
   27   11   43 1     
   28   11   44 1     
   29   11   45 1     
   30   12   13 1     
   31   12   46 1     
   32   13   14 ar    
   33   13   15 ar    
   34   13   16 1     
   35   16   17 1     
   36   16   47 1     
   37   16   48 1     
   38   17   18 am    
   39   17   49 1     
   40   18   19 2     
   41   18   20 1     
   42   20   21 1     
   43   21   22 1     
   44   21   50 1     
   45   21   51 1     
   46   22   27 ar    
   47   22   23 ar    
   48   23   24 ar    
   49   23   52 1     
   50   24   25 ar    
   51   24   53 1     
   52   25   26 ar    
   53   25   54 1     
   54   26   27 ar    
   55   26   55 1     
   56   27   56 1     
@<TRIPOS>SUBSTRUCTURE
      1 ****           1
@<TRIPOS>SET
DONOR_HYDROGENS      STATIC     ATOMS    <user>   **** ""
3 35 46 49
ATOM$RED        STATIC     ATOMS    COLORGROUP SYSTEM
3 35 46 49
