#       Name:                2HC
#       Creating user name   gbret
#       Creation time:       Thu Sep  8 21:30:19 2016


#       File generated by GOLD software.
#

@<TRIPOS>MOLECULE
2HC
    19    19     1
SMALL
NO_CHARGES


@<TRIPOS>ATOM
      1 O1          -0.0837   2.1597  -1.3501 O.3            1 <1>                0.0000
      2 C2          -0.0653   0.8032  -1.3576 C.ar           1 <1>                0.0000
      3 C3          -0.0615   0.1132  -2.5599 C.ar           1 <1>                0.0000
      4 C4          -0.0428  -1.2677  -2.5662 C.ar           1 <1>                0.0000
      5 C5          -0.0271  -1.9756  -1.3747 C.ar           1 <1>                0.0000
      6 C6          -0.0306  -1.3090  -0.1697 C.ar           1 <1>                0.0000
      7 C7          -0.0442   0.0909  -0.1471 C.ar           1 <1>                0.0000
      8 C8          -0.0475   0.8092   1.1331 C.2            1 <1>                0.0000
      9 C9          -0.0374   0.1182   2.2969 C.2            1 <1>                0.0000
     10 C10         -0.0406   0.8098   3.5294 C.2            1 <1>                0.0000
     11 O11         -0.0524   2.0350   3.5445 O.co2          1 <1>                0.0000
     12 O12         -0.0314   0.1843   4.5830 O.co2          1 <1>                0.0000
     13 H13          0.7942   2.5650  -1.3563 H              1 <1>                0.0000
     14 H14         -0.0736   0.6565  -3.4932 H              1 <1>                0.0000
     15 H15         -0.0406  -1.7997  -3.5061 H              1 <1>                0.0000
     16 H16         -0.0125  -3.0553  -1.3913 H              1 <1>                0.0000
     17 H17         -0.0191  -1.8649   0.7562 H              1 <1>                0.0000
     18 H18         -0.0579   1.8891   1.1463 H              1 <1>                0.0000
     19 H19         -0.0269  -0.9617   2.2837 H              1 <1>                0.0000
@<TRIPOS>BOND
    1    1    2 1     
    2    1   13 1     
    3    2    7 ar    
    4    2    3 ar    
    5    3    4 ar    
    6    3   14 1     
    7    4    5 ar    
    8    4   15 1     
    9    5    6 ar    
   10    5   16 1     
   11    6    7 ar    
   12    6   17 1     
   13    7    8 1     
   14    8    9 2     
   15    8   18 1     
   16    9   10 1     
   17    9   19 1     
   18   10   11 ar    
   19   10   12 ar    
@<TRIPOS>SUBSTRUCTURE
      1 ****           1
@<TRIPOS>SET
DONOR_HYDROGENS      STATIC     ATOMS    <user>   **** ""
1 13
ATOM$RED        STATIC     ATOMS    COLORGROUP SYSTEM
1 13
