#       Name:                2HH
#       Creating user name   gbret
#       Creation time:       Thu Sep  8 21:30:38 2016


#       File generated by GOLD software.
#

@<TRIPOS>MOLECULE
2HH
    25    26     1
SMALL
NO_CHARGES


@<TRIPOS>ATOM
      1 C1           1.1241  -3.1360  -1.3745 C.3            1 <1>                0.0000
      2 N2           0.7076  -1.9975  -2.1969 N.pl3          1 <1>                0.0000
      3 N3           0.7288  -1.9646  -3.4807 N.2            1 <1>                0.0000
      4 C4           0.2966  -0.8125  -3.9262 C.2            1 <1>                0.0000
      5 C5          -0.0364  -0.0241  -2.8225 C.2            1 <1>                0.0000
      6 C6           0.2317  -0.8109  -1.7156 C.2            1 <1>                0.0000
      7 C7           0.0492  -0.4403  -0.3035 C.2            1 <1>                0.0000
      8 O8           0.4103  -1.1990   0.5760 O.2            1 <1>                0.0000
      9 N9          -0.5182   0.7399   0.0155 N.am           1 <1>                0.0000
     10 C10         -0.5277   1.1746   1.3448 C.ar           1 <1>                0.0000
     11 C11         -0.6347   2.5309   1.6441 C.ar           1 <1>                0.0000
     12 C12         -0.6396   2.9124   2.9755 C.ar           1 <1>                0.0000
     13 C13         -0.5390   1.9428   3.9563 C.ar           1 <1>                0.0000
     14 N14         -0.4385   0.6667   3.6398 N.ar           1 <1>                0.0000
     15 C15         -0.4362   0.2602   2.3859 C.ar           1 <1>                0.0000
     16 H16          0.2498  -3.7283  -1.1043 H              1 <1>                0.0000
     17 H17          1.8223  -3.7550  -1.9379 H              1 <1>                0.0000
     18 H18          1.6101  -2.7719  -0.4693 H              1 <1>                0.0000
     19 H19          0.2124  -0.5228  -4.9632 H              1 <1>                0.0000
     20 H20         -0.4246   0.9837  -2.8310 H              1 <1>                0.0000
     21 H21         -0.9200   1.2878  -0.6768 H              1 <1>                0.0000
     22 H22         -0.7116   3.2668   0.8574 H              1 <1>                0.0000
     23 H23         -0.7208   3.9551   3.2447 H              1 <1>                0.0000
     24 H24         -0.5424   2.2348   4.9960 H              1 <1>                0.0000
     25 H25         -0.3522  -0.7938   2.1658 H              1 <1>                0.0000
@<TRIPOS>BOND
    1    1    2 1     
    2    1   16 1     
    3    1   17 1     
    4    1   18 1     
    5    2    6 1     
    6    2    3 1     
    7    3    4 2     
    8    4    5 1     
    9    4   19 1     
   10    5    6 2     
   11    5   20 1     
   12    6    7 1     
   13    7    8 2     
   14    7    9 am    
   15    9   10 1     
   16    9   21 1     
   17   10   15 ar    
   18   10   11 ar    
   19   11   12 ar    
   20   11   22 1     
   21   12   13 ar    
   22   12   23 1     
   23   13   14 ar    
   24   13   24 1     
   25   14   15 ar    
   26   15   25 1     
@<TRIPOS>SUBSTRUCTURE
      1 ****           1
@<TRIPOS>SET
DONOR_HYDROGENS      STATIC     ATOMS    <user>   **** ""
1 21
ATOM$RED        STATIC     ATOMS    COLORGROUP SYSTEM
1 21
