#       Name:                2LF
#       Creating user name   gbret
#       Creation time:       Thu Sep  8 21:37:45 2016


#       File generated by GOLD software.
#

@<TRIPOS>MOLECULE
2LF
    33    36     1
SMALL
NO_CHARGES


@<TRIPOS>ATOM
      1 N1           1.7164   4.8244   0.5354 N.pl3          1 <1>                0.0000
      2 C2           1.7350   3.4523   0.5278 C.2            1 <1>                0.0000
      3 N3           0.5793   2.8138   0.5300 N.2            1 <1>                0.0000
      4 C4           0.5944   1.4722   0.5225 C.2            1 <1>                0.0000
      5 N5          -0.3684   0.5347   0.5132 N.pl3          1 <1>                0.0000
      6 C6          -1.8372   0.6632   0.4911 C.3            1 <1>                0.0000
      7 C7          -2.2581   0.4000  -0.9797 C.3            1 <1>                0.0000
      8 C8          -2.3085  -1.1413  -1.0755 C.3            1 <1>                0.0000
      9 O9          -1.2954  -1.6192  -1.9628 O.3            1 <1>                0.0000
     10 C10         -2.0377  -1.6266   0.3604 C.3            1 <1>                0.0000
     11 O11         -2.3422  -0.4956   1.2040 O.3            1 <1>                0.0000
     12 C12         -0.5546  -1.9843   0.5270 C.3            1 <1>                0.0000
     13 O13         -0.1357  -2.8204  -0.5535 O.3            1 <1>                0.0000
     14 P14          0.4457  -4.3062  -0.3380 P.3            1 <1>                0.0000
     15 O15         -0.6764  -5.2252   0.2543 O.co2          1 <1>                0.0000
     16 O16          0.9227  -4.8849  -1.7135 O.co2          1 <1>                0.0000
     17 O17          1.6564  -4.2544   0.6549 O.co2          1 <1>                0.0000
     18 C18          0.2429  -0.7000   0.5175 C.2            1 <1>                0.0000
     19 N19          1.5306  -0.5485   0.5133 N.2            1 <1>                0.0000
     20 C20          1.8190   0.7660   0.5160 C.2            1 <1>                0.0000
     21 C21          3.0459   1.4730   0.5121 C.2            1 <1>                0.0000
     22 O22          4.1239   0.9036   0.5038 O.2            1 <1>                0.0000
     23 N23          2.9427   2.8272   0.5129 N.am           1 <1>                0.0000
     24 H24          3.7516   3.3626   0.5095 H              1 <1>                0.0000
     25 H25          2.5497   5.3208   0.5301 H              1 <1>                0.0000
     26 H26          0.8698   5.2980   0.5420 H              1 <1>                0.0000
     27 H27         -2.1940   1.6105   0.8955 H              1 <1>                0.0000
     28 H28         -3.2401   0.8287  -1.1798 H              1 <1>                0.0000
     29 H29         -1.5156   0.8027  -1.6687 H              1 <1>                0.0000
     30 H30         -3.2923  -1.4696  -1.4107 H              1 <1>                0.0000
     31 H31         -1.3862  -1.3007  -2.8714 H              1 <1>                0.0000
     32 H32         -2.6797  -2.4724   0.6065 H              1 <1>                0.0000
     33 H33         -0.4055  -2.5039   1.4735 H              1 <1>                0.0000
@<TRIPOS>BOND
    1    1    2 1     
    2    1   25 1     
    3    1   26 1     
    4    2   23 1     
    5    2    3 2     
    6    3    4 1     
    7    4   20 2     
    8    4    5 1     
    9    5   18 1     
   10    5    6 1     
   11    6   11 1     
   12    6    7 1     
   13    6   27 1     
   14    7    8 1     
   15    7   28 1     
   16    7   29 1     
   17    8    9 1     
   18    8   10 1     
   19    8   30 1     
   20    9   31 1     
   21   10   11 1     
   22   10   12 1     
   23   10   32 1     
   24   12   13 1     
   25   12   18 1     
   26   12   33 1     
   27   13   14 1     
   28   14   15 ar    
   29   14   16 ar    
   30   14   17 ar    
   31   18   19 2     
   32   19   20 1     
   33   20   21 1     
   34   21   22 2     
   35   21   23 am    
   36   23   24 1     
@<TRIPOS>SUBSTRUCTURE
      1 ****           1
@<TRIPOS>SET
DONOR_HYDROGENS      STATIC     ATOMS    <user>   **** ""
4 25 26 31 24
ATOM$RED        STATIC     ATOMS    COLORGROUP SYSTEM
4 25 26 31 24
