#       Name:                2MN
#       Creating user name   gbret
#       Creation time:       Thu Sep  8 21:40:36 2016


#       File generated by GOLD software.
#

@<TRIPOS>MOLECULE
2MN
    21    21     1
SMALL
NO_CHARGES


@<TRIPOS>ATOM
      1 C1          -0.4246   2.1418  -1.3846 C.3            1 <1>                0.0000
      2 C2          -0.4041   0.6349  -1.3929 C.2            1 <1>                0.0000
      3 N3          -0.3982  -0.1198  -2.4575 N.2            1 <1>                0.0000
      4 C4          -0.3784  -1.4085  -2.0860 C.2            1 <1>                0.0000
      5 C5          -0.3717  -1.4540  -0.7401 C.2            1 <1>                0.0000
      6 N6          -0.3830  -0.1580  -0.2999 N.pl3          1 <1>                0.0000
      7 C7          -0.3811   0.2860   1.0962 C.3            1 <1>                0.0000
      8 C8           1.0620   0.4547   1.5758 C.3            1 <1>                0.0000
      9 O9           1.0638   0.8878   2.9376 O.3            1 <1>                0.0000
     10 N10         -0.3508  -2.6717   0.1015 N.pl3          1 <1>                0.0000
     11 O11         -0.3371  -3.7723  -0.4200 O.2            1 <1>                0.0000
     12 O12         -0.3472  -2.5729   1.3155 O.2            1 <1>                0.0000
     13 H13          0.5980   2.5191  -1.3923 H              1 <1>                0.0000
     14 H14         -0.9517   2.5029  -2.2677 H              1 <1>                0.0000
     15 H15         -0.9348   2.4933  -0.4878 H              1 <1>                0.0000
     16 H16         -0.3697  -2.2603  -2.7499 H              1 <1>                0.0000
     17 H17         -0.9040   1.2391   1.1751 H              1 <1>                0.0000
     18 H18         -0.8849  -0.4570   1.7144 H              1 <1>                0.0000
     19 H19          1.5848  -0.4984   1.4969 H              1 <1>                0.0000
     20 H20          1.5658   1.1977   0.9575 H              1 <1>                0.0000
     21 H21          1.9477   1.0156   3.3084 H              1 <1>                0.0000
@<TRIPOS>BOND
    1    1    2 1     
    2    1   13 1     
    3    1   14 1     
    4    1   15 1     
    5    2    6 1     
    6    2    3 2     
    7    3    4 1     
    8    4    5 2     
    9    4   16 1     
   10    5    6 1     
   11    5   10 1     
   12    6    7 1     
   13    7    8 1     
   14    7   17 1     
   15    7   18 1     
   16    8    9 1     
   17    8   19 1     
   18    8   20 1     
   19    9   21 1     
   20   10   11 2     
   21   10   12 2     
@<TRIPOS>SUBSTRUCTURE
      1 ****           1
@<TRIPOS>SET
DONOR_HYDROGENS      STATIC     ATOMS    <user>   **** ""
1 21
ATOM$RED        STATIC     ATOMS    COLORGROUP SYSTEM
1 21
