#       Name:                2QE
#       Creating user name   gbret
#       Creation time:       Thu Sep  8 21:48:39 2016


#       File generated by GOLD software.
#

@<TRIPOS>MOLECULE
2QE
    30    29     1
SMALL
NO_CHARGES


@<TRIPOS>ATOM
      1 C1           2.6604   4.8758  -0.1197 C.3            1 <1>                0.0000
      2 O2           2.6801   3.4239  -0.1277 O.3            1 <1>                0.0000
      3 C3           1.4925   2.7983  -0.1197 C.2            1 <1>                0.0000
      4 O4           0.4704   3.4425  -0.1065 O.2            1 <1>                0.0000
      5 C5           1.4341   1.2925  -0.1272 C.3            1 <1>                0.0000
      6 C6          -0.0271   0.8387  -0.1157 C.3            1 <1>                0.0000
      7 C7          -0.0864  -0.6901  -0.1234 C.3            1 <1>                0.0000
      8 C8          -1.5409  -1.1447   0.0138 C.3            1 <1>                0.0000
      9 C9          -1.5897  -2.6694   0.1315 C.3            1 <1>                0.0000
     10 N10         -0.9332  -3.0856   1.3780 N.4            1 <1>                0.0000
     11 H11          0.0282  -2.7794   1.3703 H              1 <1>                0.0000
     12 H12         -1.4115  -2.6720   2.1643 H              1 <1>                0.0000
     13 H13         -0.9654  -4.0911   1.4556 H              1 <1>                0.0000
     14 C14         -3.0256  -3.1266   0.1431 C.2            1 <1>                0.0000
     15 O15         -3.5889  -3.3934  -0.9048 O.co2          1 <1>                0.0000
     16 O16         -3.6240  -3.2297   1.2003 O.co2          1 <1>                0.0000
     17 C17          0.4818  -1.2084  -1.4193 C.2            1 <1>                0.0000
     18 O18          1.4513  -1.9476  -1.4075 O.co2          1 <1>                0.0000
     19 O19         -0.0280  -0.8885  -2.4797 O.co2          1 <1>                0.0000
     20 H20          3.6830   5.2531  -0.1274 H              1 <1>                0.0000
     21 H21          2.1332   5.2369  -1.0028 H              1 <1>                0.0000
     22 H22          2.1502   5.2273   0.7771 H              1 <1>                0.0000
     23 H23          1.9249   0.9143  -1.0240 H              1 <1>                0.0000
     24 H24          1.9419   0.9047   0.7559 H              1 <1>                0.0000
     25 H25         -0.5179   1.2169   0.7810 H              1 <1>                0.0000
     26 H26         -0.5349   1.2265  -0.9988 H              1 <1>                0.0000
     27 H27          0.4965  -1.0805   0.7108 H              1 <1>                0.0000
     28 H28         -1.9788  -0.6972   0.9060 H              1 <1>                0.0000
     29 H29         -2.1043  -0.8299  -0.8645 H              1 <1>                0.0000
     30 H30         -1.0730  -3.1161  -0.7179 H              1 <1>                0.0000
@<TRIPOS>BOND
    1    1    2 1     
    2    1   20 1     
    3    1   21 1     
    4    1   22 1     
    5    2    3 1     
    6    3    4 2     
    7    3    5 1     
    8    5    6 1     
    9    5   23 1     
   10    5   24 1     
   11    6    7 1     
   12    6   25 1     
   13    6   26 1     
   14    7    8 1     
   15    7   17 1     
   16    7   27 1     
   17    8    9 1     
   18    8   28 1     
   19    8   29 1     
   20    9   10 1     
   21    9   14 1     
   22    9   30 1     
   23   10   11 1     
   24   10   12 1     
   25   10   13 1     
   26   14   15 ar    
   27   14   16 ar    
   28   17   18 ar    
   29   17   19 ar    
@<TRIPOS>SUBSTRUCTURE
      1 ****           1
@<TRIPOS>SET
DONOR_HYDROGENS      STATIC     ATOMS    <user>   **** ""
3 11 12 13
ATOM$RED        STATIC     ATOMS    COLORGROUP SYSTEM
3 11 12 13
