#       Name:                2RB
#       Creating user name   gbret
#       Creation time:       Thu Sep  8 21:50:50 2016


#       File generated by GOLD software.
#

@<TRIPOS>MOLECULE
2RB
    34    35     1
SMALL
NO_CHARGES


@<TRIPOS>ATOM
      1 C1          -2.6813   4.9110  -4.3416 C.3            1 <1>                0.0000
      2 O2          -2.6619   3.4821  -4.3495 O.3            1 <1>                0.0000
      3 C3          -2.0390   2.8687  -3.3114 C.ar           1 <1>                0.0000
      4 C4          -1.4625   3.6299  -2.3014 C.ar           1 <1>                0.0000
      5 C5          -0.8295   3.0113  -1.2464 C.ar           1 <1>                0.0000
      6 C6          -0.7673   1.6162  -1.1922 C.ar           1 <1>                0.0000
      7 C7          -1.3483   0.8546  -2.2097 C.ar           1 <1>                0.0000
      8 C8          -1.9844   1.4808  -3.2583 C.ar           1 <1>                0.0000
      9 C9          -0.0897   0.9492  -0.0638 C.2            1 <1>                0.0000
     10 O10          0.4158   1.6138   0.8208 O.2            1 <1>                0.0000
     11 N11         -0.0308  -0.3963  -0.0132 N.am           1 <1>                0.0000
     12 N12          0.6126  -1.0295   1.0581 N.2            1 <1>                0.0000
     13 C13          0.6694  -2.3259   1.1068 C.2            1 <1>                0.0000
     14 C14          1.3458  -2.9917   2.2332 C.ar           1 <1>                0.0000
     15 C15          1.4135  -4.3867   2.2853 C.ar           1 <1>                0.0000
     16 C16          2.0478  -5.0060   3.3408 C.ar           1 <1>                0.0000
     17 Br17         2.1384  -6.8936   3.4096 Br             1 <1>                0.0000
     18 C18          2.6217  -4.2472   4.3549 C.ar           1 <1>                0.0000
     19 O19          3.2457  -4.8649   5.3918 O.co2          1 <1>                0.0000
     20 C20          2.5600  -2.8616   4.3117 C.ar           1 <1>                0.0000
     21 Br21         3.3437  -1.8374   5.6947 Br             1 <1>                0.0000
     22 C22          1.9293  -2.2284   3.2542 C.ar           1 <1>                0.0000
     23 O23          1.8683  -0.8721   3.2107 O.3            1 <1>                0.0000
     24 H24         -1.6587   5.2883  -4.3494 H              1 <1>                0.0000
     25 H25         -3.2085   5.2721  -5.2247 H              1 <1>                0.0000
     26 H26         -3.1915   5.2625  -3.4448 H              1 <1>                0.0000
     27 H27         -1.5106   4.7079  -2.3443 H              1 <1>                0.0000
     28 H28         -0.3815   3.6035  -0.4622 H              1 <1>                0.0000
     29 H29         -1.3024  -0.2238  -2.1714 H              1 <1>                0.0000
     30 H30         -2.4339   0.8929  -4.0449 H              1 <1>                0.0000
     31 H31         -0.4339  -0.9262  -0.7186 H              1 <1>                0.0000
     32 H32          0.2206  -2.9160   0.3214 H              1 <1>                0.0000
     33 H33          0.9688  -4.9791   1.4994 H              1 <1>                0.0000
     34 H34          2.6143  -0.4593   2.7546 H              1 <1>                0.0000
@<TRIPOS>BOND
    1    1    2 1     
    2    1   24 1     
    3    1   25 1     
    4    1   26 1     
    5    2    3 1     
    6    3    8 ar    
    7    3    4 ar    
    8    4    5 ar    
    9    4   27 1     
   10    5    6 ar    
   11    5   28 1     
   12    6    7 ar    
   13    6    9 1     
   14    7    8 ar    
   15    7   29 1     
   16    8   30 1     
   17    9   10 2     
   18    9   11 am    
   19   11   12 1     
   20   11   31 1     
   21   12   13 2     
   22   13   14 1     
   23   13   32 1     
   24   14   22 ar    
   25   14   15 ar    
   26   15   16 ar    
   27   15   33 1     
   28   16   17 1     
   29   16   18 ar    
   30   18   19 ar    
   31   18   20 ar    
   32   20   21 1     
   33   20   22 ar    
   34   22   23 1     
   35   23   34 1     
@<TRIPOS>SUBSTRUCTURE
      1 ****           1
@<TRIPOS>SET
DONOR_HYDROGENS      STATIC     ATOMS    <user>   **** ""
2 31 34
ATOM$RED        STATIC     ATOMS    COLORGROUP SYSTEM
2 31 34
