#       Name:                2SS
#       Creating user name   gbret
#       Creation time:       Thu Sep  8 21:54:19 2016


#       File generated by GOLD software.
#

@<TRIPOS>MOLECULE
2SS
    71    74     1
SMALL
NO_CHARGES


@<TRIPOS>ATOM
      1 O1           8.8464  -1.1753  -1.9909 O.co2          1 <1>                0.0000
      2 C2           8.7191   0.0177  -2.2078 C.2            1 <1>                0.0000
      3 O3           9.7051   0.7169  -2.3672 O.co2          1 <1>                0.0000
      4 C4           7.3429   0.6269  -2.2849 C.3            1 <1>                0.0000
      5 C5           6.2905  -0.4602  -2.0573 C.3            1 <1>                0.0000
      6 C6           4.8933   0.1583  -2.1356 C.3            1 <1>                0.0000
      7 C7           3.8319  -0.9422  -2.0023 C.3            1 <1>                0.0000
      8 O8           2.5399  -0.3284  -2.0654 O.3            1 <1>                0.0000
      9 C9           2.3556   0.7854  -1.3114 C.ar           1 <1>                0.0000
     10 C10          3.4405   1.4953  -0.8102 C.ar           1 <1>                0.0000
     11 O11          4.7147   1.0858  -1.0596 O.3            1 <1>                0.0000
     12 C12          3.2292   2.6318  -0.0460 C.ar           1 <1>                0.0000
     13 C13          1.9419   3.0663   0.2250 C.ar           1 <1>                0.0000
     14 C14          0.8566   2.3733  -0.2621 C.ar           1 <1>                0.0000
     15 C15         -0.5405   2.8517   0.0383 C.3            1 <1>                0.0000
     16 N16         -1.1034   2.0588   1.1393 N.4            1 <1>                0.0000
     17 H17         -1.0553   1.0782   0.9065 H              1 <1>                0.0000
     18 C18         -0.3348   2.3092   2.3659 C.3            1 <1>                0.0000
     19 C19         -0.8196   1.3916   3.4586 C.2            1 <1>                0.0000
     20 C20          0.0260   0.6040   4.0758 C.2            1 <1>                0.0000
     21 C21         -2.5051   2.4432   1.3528 C.3            1 <1>                0.0000
     22 C22         -3.3182   2.0716   0.1396 C.ar           1 <1>                0.0000
     23 C23         -3.6809   3.0408  -0.7731 C.ar           1 <1>                0.0000
     24 C24         -4.4273   2.7014  -1.8872 C.ar           1 <1>                0.0000
     25 C25         -4.8151   1.3893  -2.0943 C.ar           1 <1>                0.0000
     26 C26         -4.4589   0.4106  -1.1898 C.ar           1 <1>                0.0000
     27 C27         -3.7012   0.7455  -0.0662 C.ar           1 <1>                0.0000
     28 C28         -3.3153  -0.2983   0.9071 C.2            1 <1>                0.0000
     29 O29         -2.7429   0.0101   1.9341 O.2            1 <1>                0.0000
     30 N30         -3.5983  -1.5918   0.6557 N.am           1 <1>                0.0000
     31 C31         -3.2159  -2.6262   1.6201 C.3            1 <1>                0.0000
     32 C32         -3.6498  -3.9969   1.0968 C.3            1 <1>                0.0000
     33 C33         -2.6066  -4.6677   0.1877 C.3            1 <1>                0.0000
     34 C34         -2.9626  -5.9900   0.8874 C.3            1 <1>                0.0000
     35 C35         -3.4035  -5.1426   2.0925 C.3            1 <1>                0.0000
     36 C36          1.0521   1.2240  -1.0363 C.ar           1 <1>                0.0000
     37 C37         -0.1045   0.4799  -1.5603 C.2            1 <1>                0.0000
     38 O38         -1.2402   0.8656  -1.3194 O.co2          1 <1>                0.0000
     39 O39          0.0698  -0.5245  -2.2367 O.co2          1 <1>                0.0000
     40 H40          7.2425   1.3958  -1.5189 H              1 <1>                0.0000
     41 H41          7.1976   1.0729  -3.2688 H              1 <1>                0.0000
     42 H42          6.3909  -1.2291  -2.8233 H              1 <1>                0.0000
     43 H43          6.4358  -0.9062  -1.0734 H              1 <1>                0.0000
     44 H44          4.7721   0.6732  -3.0886 H              1 <1>                0.0000
     45 H45          3.9394  -1.6573  -2.8179 H              1 <1>                0.0000
     46 H46          3.9500  -1.4530  -1.0467 H              1 <1>                0.0000
     47 H47          4.0738   3.1827   0.3408 H              1 <1>                0.0000
     48 H48          1.7889   3.9532   0.8219 H              1 <1>                0.0000
     49 H49         -0.5107   3.9027   0.3256 H              1 <1>                0.0000
     50 H50         -1.1631   2.7351  -0.8488 H              1 <1>                0.0000
     51 H51          0.7223   2.1222   2.1768 H              1 <1>                0.0000
     52 H52         -0.4708   3.3456   2.6748 H              1 <1>                0.0000
     53 H53         -1.8641   1.3832   3.7329 H              1 <1>                0.0000
     54 H54         -0.3215  -0.0536   4.8589 H              1 <1>                0.0000
     55 H55          1.0705   0.6123   3.8015 H              1 <1>                0.0000
     56 H56         -2.8961   1.9211   2.2261 H              1 <1>                0.0000
     57 H57         -2.5660   3.5193   1.5154 H              1 <1>                0.0000
     58 H58         -3.3816   4.0667  -0.6171 H              1 <1>                0.0000
     59 H59         -4.7088   3.4638  -2.5984 H              1 <1>                0.0000
     60 H60         -5.3984   1.1309  -2.9658 H              1 <1>                0.0000
     61 H61         -4.7622  -0.6130  -1.3526 H              1 <1>                0.0000
     62 H62         -4.0551  -1.8379  -0.1639 H              1 <1>                0.0000
     63 H63         -2.1344  -2.6147   1.7555 H              1 <1>                0.0000
     64 H64         -3.7037  -2.4307   2.5750 H              1 <1>                0.0000
     65 H65         -4.6563  -3.9909   0.6783 H              1 <1>                0.0000
     66 H66         -2.8715  -4.6479  -0.8694 H              1 <1>                0.0000
     67 H67         -1.5856  -4.3354   0.3755 H              1 <1>                0.0000
     68 H68         -3.7807  -6.5298   0.4105 H              1 <1>                0.0000
     69 H69         -2.0987  -6.6226   1.0911 H              1 <1>                0.0000
     70 H70         -2.6004  -4.9401   2.8011 H              1 <1>                0.0000
     71 H71         -4.3117  -5.5062   2.5732 H              1 <1>                0.0000
@<TRIPOS>BOND
    1    1    2 ar    
    2    2    3 ar    
    3    2    4 1     
    4    4    5 1     
    5    4   40 1     
    6    4   41 1     
    7    5    6 1     
    8    5   42 1     
    9    5   43 1     
   10    6   11 1     
   11    6    7 1     
   12    6   44 1     
   13    7    8 1     
   14    7   45 1     
   15    7   46 1     
   16    8    9 1     
   17    9   36 ar    
   18    9   10 ar    
   19   10   11 1     
   20   10   12 ar    
   21   12   13 ar    
   22   12   47 1     
   23   13   14 ar    
   24   13   48 1     
   25   14   15 1     
   26   14   36 ar    
   27   15   16 1     
   28   15   49 1     
   29   15   50 1     
   30   16   17 1     
   31   16   18 1     
   32   16   21 1     
   33   18   19 1     
   34   18   51 1     
   35   18   52 1     
   36   19   20 2     
   37   19   53 1     
   38   20   54 1     
   39   20   55 1     
   40   21   22 1     
   41   21   56 1     
   42   21   57 1     
   43   22   27 ar    
   44   22   23 ar    
   45   23   24 ar    
   46   23   58 1     
   47   24   25 ar    
   48   24   59 1     
   49   25   26 ar    
   50   25   60 1     
   51   26   27 ar    
   52   26   61 1     
   53   27   28 1     
   54   28   29 2     
   55   28   30 am    
   56   30   31 1     
   57   30   62 1     
   58   31   32 1     
   59   31   63 1     
   60   31   64 1     
   61   32   35 1     
   62   32   33 1     
   63   32   65 1     
   64   33   34 1     
   65   33   66 1     
   66   33   67 1     
   67   34   35 1     
   68   34   68 1     
   69   34   69 1     
   70   35   70 1     
   71   35   71 1     
   72   36   37 1     
   73   37   38 ar    
   74   37   39 ar    
@<TRIPOS>SUBSTRUCTURE
      1 ****           1
@<TRIPOS>SET
DONOR_HYDROGENS      STATIC     ATOMS    <user>   **** ""
2 17 62
ATOM$RED        STATIC     ATOMS    COLORGROUP SYSTEM
2 17 62
