#       Name:                2TE
#       Creating user name   gbret
#       Creation time:       Thu Sep  8 21:55:37 2016


#       File generated by GOLD software.
#

@<TRIPOS>MOLECULE
2TE
    60    62     1
SMALL
NO_CHARGES


@<TRIPOS>ATOM
      1 C1           0.8520   9.7293   0.5761 C.3            1 <1>                0.0000
      2 C2           0.9631   8.2619   0.6099 C.1            1 <1>                0.0000
      3 C3           1.0516   7.0915   0.6369 C.1            1 <1>                0.0000
      4 C4           1.1627   5.6241   0.6707 C.3            1 <1>                0.0000
      5 C5           0.2494   5.0188  -0.3972 C.3            1 <1>                0.0000
      6 O6           0.7123   5.4032  -1.6933 O.3            1 <1>                0.0000
      7 C7           0.2689   3.5164  -0.2820 C.ar           1 <1>                0.0000
      8 C8           0.4726   2.9215   0.9497 C.ar           1 <1>                0.0000
      9 C9           0.4911   1.5449   1.0589 C.ar           1 <1>                0.0000
     10 C10          0.3048   0.7577  -0.0704 C.ar           1 <1>                0.0000
     11 C11          0.1005   1.3585  -1.3061 C.ar           1 <1>                0.0000
     12 C12          0.0776   2.7356  -1.4072 C.ar           1 <1>                0.0000
     13 N13          0.3233  -0.6349   0.0364 N.3            1 <1>                0.0000
     14 C14          1.5267  -1.1951  -0.5928 C.3            1 <1>                0.0000
     15 C15          1.6010  -2.6970  -0.2982 C.3            1 <1>                0.0000
     16 N16          0.3347  -3.3181  -0.7152 N.pl3          1 <1>                0.0000
     17 C17         -0.9225  -2.7257  -0.2340 C.3            1 <1>                0.0000
     18 C18         -0.8975  -1.2226  -0.5311 C.3            1 <1>                0.0000
     19 C19         -2.0775  -0.5828   0.0731 C.1            1 <1>                0.0000
     20 C20         -3.0185  -0.0724   0.5549 C.1            1 <1>                0.0000
     21 C21         -4.1985   0.5674   1.1591 C.3            1 <1>                0.0000
     22 S22          0.3247  -4.6488  -1.7009 S.o2           1 <1>                0.0000
     23 O23         -0.9418  -4.6616  -2.3450 O.2            1 <1>                0.0000
     24 O24          1.5566  -4.6329  -2.4090 O.2            1 <1>                0.0000
     25 C25          0.3677  -6.0696  -0.6596 C.ar           1 <1>                0.0000
     26 C26          1.5831  -6.6179  -0.2710 C.ar           1 <1>                0.0000
     27 C27          1.5727  -7.7328   0.5472 C.ar           1 <1>                0.0000
     28 C28          0.3520  -8.2643   0.9512 C.ar           1 <1>                0.0000
     29 N29          0.3267  -9.3843   1.7740 N.pl3          1 <1>                0.0000
     30 N30         -0.7859  -7.7124   0.5592 N.ar           1 <1>                0.0000
     31 C31         -0.8060  -6.6453  -0.2171 C.ar           1 <1>                0.0000
     32 C32         -1.1793   5.5274  -0.1944 C.3            1 <1>                0.0000
     33 F33         -1.1974   6.9221  -0.3013 F              1 <1>                0.0000
     34 F34         -2.0143   4.9739  -1.1708 F              1 <1>                0.0000
     35 F35         -1.6324   5.1510   1.0746 F              1 <1>                0.0000
     36 H36          1.5026  10.1605   1.3369 H              1 <1>                0.0000
     37 H37          1.1510  10.0937  -0.4067 H              1 <1>                0.0000
     38 H38         -0.1798  10.0202   0.7731 H              1 <1>                0.0000
     39 H39          2.1945   5.3332   0.4738 H              1 <1>                0.0000
     40 H40          0.8637   5.2597   1.6535 H              1 <1>                0.0000
     41 H41          1.6135   5.1135  -1.8910 H              1 <1>                0.0000
     42 H42          0.6177   3.5342   1.8272 H              1 <1>                0.0000
     43 H43          0.6505   1.0810   2.0210 H              1 <1>                0.0000
     44 H44         -0.0443   0.7493  -2.1860 H              1 <1>                0.0000
     45 H45         -0.0812   3.2034  -2.3676 H              1 <1>                0.0000
     46 H46          1.4806  -1.0376  -1.6704 H              1 <1>                0.0000
     47 H47          2.4111  -0.7013  -0.1902 H              1 <1>                0.0000
     48 H48          2.4267  -3.1391  -0.8558 H              1 <1>                0.0000
     49 H49          1.7514  -2.8537   0.7699 H              1 <1>                0.0000
     50 H50         -1.7653  -3.1868  -0.7491 H              1 <1>                0.0000
     51 H51         -1.0148  -2.8851   0.8403 H              1 <1>                0.0000
     52 H52         -0.9098  -1.0648  -1.6096 H              1 <1>                0.0000
     53 H53         -4.1803   1.6366   0.9475 H              1 <1>                0.0000
     54 H54         -5.1041   0.1294   0.7395 H              1 <1>                0.0000
     55 H55         -4.1848   0.4102   2.2376 H              1 <1>                0.0000
     56 H56          2.5154  -6.1837  -0.6008 H              1 <1>                0.0000
     57 H57          2.4996  -8.1850   0.8680 H              1 <1>                0.0000
     58 H58          1.1578  -9.7919   2.0640 H              1 <1>                0.0000
     59 H59         -0.5219  -9.7584   2.0581 H              1 <1>                0.0000
     60 H60         -1.7534  -6.2222  -0.5170 H              1 <1>                0.0000
@<TRIPOS>BOND
    1    1    2 1     
    2    1   36 1     
    3    1   37 1     
    4    1   38 1     
    5    2    3 3     
    6    3    4 1     
    7    4    5 1     
    8    4   39 1     
    9    4   40 1     
   10    5    6 1     
   11    5    7 1     
   12    5   32 1     
   13    6   41 1     
   14    7   12 ar    
   15    7    8 ar    
   16    8    9 ar    
   17    8   42 1     
   18    9   10 ar    
   19    9   43 1     
   20   10   11 ar    
   21   10   13 1     
   22   11   12 ar    
   23   11   44 1     
   24   12   45 1     
   25   13   18 1     
   26   13   14 1     
   27   14   15 1     
   28   14   46 1     
   29   14   47 1     
   30   15   16 1     
   31   15   48 1     
   32   15   49 1     
   33   16   17 1     
   34   16   22 1     
   35   17   18 1     
   36   17   50 1     
   37   17   51 1     
   38   18   19 1     
   39   18   52 1     
   40   19   20 3     
   41   20   21 1     
   42   21   53 1     
   43   21   54 1     
   44   21   55 1     
   45   22   23 2     
   46   22   24 2     
   47   22   25 1     
   48   25   31 ar    
   49   25   26 ar    
   50   26   27 ar    
   51   26   56 1     
   52   27   28 ar    
   53   27   57 1     
   54   28   29 1     
   55   28   30 ar    
   56   29   58 1     
   57   29   59 1     
   58   30   31 ar    
   59   31   60 1     
   60   32   33 1     
   61   32   34 1     
   62   32   35 1     
@<TRIPOS>SUBSTRUCTURE
      1 ****           1
@<TRIPOS>SET
DONOR_HYDROGENS      STATIC     ATOMS    <user>   **** ""
3 41 58 59
ATOM$RED        STATIC     ATOMS    COLORGROUP SYSTEM
3 41 58 59
