#       Name:                2W6
#       Creating user name   gbret
#       Creation time:       Thu Sep  8 22:02:12 2016


#       File generated by GOLD software.
#

@<TRIPOS>MOLECULE
2W6
    64    67     1
SMALL
NO_CHARGES


@<TRIPOS>ATOM
      1 C1           1.1240   0.4823  -6.5180 C.3            1 <1>                0.0000
      2 N2           1.2733  -0.9787  -6.5523 N.4            1 <1>                0.0000
      3 H3           0.3616  -1.4105  -6.5323 H              1 <1>                0.0000
      4 C4           1.9739  -1.3706  -7.7825 C.3            1 <1>                0.0000
      5 C5           2.0493  -1.4192  -5.3854 C.3            1 <1>                0.0000
      6 C6           1.2617  -1.1227  -4.1076 C.3            1 <1>                0.0000
      7 C7           2.0700  -1.5815  -2.8922 C.3            1 <1>                0.0000
      8 C8           3.3276  -0.7581  -2.7855 C.ar           1 <1>                0.0000
      9 C9           4.5543  -1.3829  -2.6599 C.ar           1 <1>                0.0000
     10 C10          5.7079  -0.6276  -2.5619 C.ar           1 <1>                0.0000
     11 C11          5.6349   0.7525  -2.5900 C.ar           1 <1>                0.0000
     12 C12          4.4084   1.3773  -2.7165 C.ar           1 <1>                0.0000
     13 C13          3.2551   0.6220  -2.8188 C.ar           1 <1>                0.0000
     14 N14          1.2681  -1.4078  -1.6786 N.pl3          1 <1>                0.0000
     15 C15          1.1522  -0.2649  -0.9538 C.2            1 <1>                0.0000
     16 C16          0.3212  -0.5233   0.0883 C.2            1 <1>                0.0000
     17 N17         -0.0678   0.3913   1.0845 N.am           1 <1>                0.0000
     18 C18         -0.9029   0.0016   2.0680 C.2            1 <1>                0.0000
     19 O19         -1.3202  -1.1402   2.0945 O.2            1 <1>                0.0000
     20 C20         -1.3112   0.9615   3.1136 C.2            1 <1>                0.0000
     21 N21         -0.9447   2.2282   3.2094 N.2            1 <1>                0.0000
     22 N22         -1.4889   2.7707   4.2436 N.pl3          1 <1>                0.0000
     23 H23         -1.3654   3.6930   4.5176 H              1 <1>                0.0000
     24 C24         -2.2527   1.8722   4.8865 C.2            1 <1>                0.0000
     25 C25         -3.0790   2.0524   6.1340 C.3            1 <1>                0.0000
     26 C26         -4.0755   0.8897   6.2248 C.3            1 <1>                0.0000
     27 C27         -4.7550   0.9072   7.5955 C.3            1 <1>                0.0000
     28 C28         -5.1337   1.0393   5.1299 C.3            1 <1>                0.0000
     29 C29         -3.3358  -0.4380   6.0395 C.3            1 <1>                0.0000
     30 C30         -2.8691  -0.5659   4.5831 C.3            1 <1>                0.0000
     31 C31         -2.1696   0.7080   4.1966 C.2            1 <1>                0.0000
     32 C32         -0.0809  -1.8638  -0.0049 C.2            1 <1>                0.0000
     33 N33          0.4802  -2.3891  -1.0636 N.2            1 <1>                0.0000
     34 H34          2.1089   0.9487  -6.5395 H              1 <1>                0.0000
     35 H35          0.5482   0.8091  -7.3838 H              1 <1>                0.0000
     36 H36          0.6042   0.7730  -5.6051 H              1 <1>                0.0000
     37 H37          2.9588  -0.9041  -7.8041 H              1 <1>                0.0000
     38 H38          2.0847  -2.4547  -7.8080 H              1 <1>                0.0000
     39 H39          1.3981  -1.0438  -8.6484 H              1 <1>                0.0000
     40 H40          2.2361  -2.4907  -5.4566 H              1 <1>                0.0000
     41 H41          2.9995  -0.8857  -5.3585 H              1 <1>                0.0000
     42 H42          1.0749  -0.0512  -4.0363 H              1 <1>                0.0000
     43 H43          0.3116  -1.6562  -4.1345 H              1 <1>                0.0000
     44 H44          2.3329  -2.6331  -3.0066 H              1 <1>                0.0000
     45 H45          4.6113  -2.4612  -2.6379 H              1 <1>                0.0000
     46 H46          6.6662  -1.1158  -2.4631 H              1 <1>                0.0000
     47 H47          6.5361   1.3426  -2.5128 H              1 <1>                0.0000
     48 H48          4.3513   2.4556  -2.7381 H              1 <1>                0.0000
     49 H49          2.2969   1.1101  -2.9176 H              1 <1>                0.0000
     50 H50          1.6336   0.6779  -1.1676 H              1 <1>                0.0000
     51 H51          0.2651   1.3021   1.0634 H              1 <1>                0.0000
     52 H52         -2.4289   2.0481   7.0089 H              1 <1>                0.0000
     53 H53         -3.6204   2.9970   6.0827 H              1 <1>                0.0000
     54 H54         -5.2844   1.8509   7.7266 H              1 <1>                0.0000
     55 H55         -5.4632   0.0812   7.6605 H              1 <1>                0.0000
     56 H56         -4.0014   0.8019   8.3760 H              1 <1>                0.0000
     57 H57         -4.6500   1.0282   4.1532 H              1 <1>                0.0000
     58 H58         -5.8421   0.2134   5.1940 H              1 <1>                0.0000
     59 H59         -5.6629   1.9830   5.2626 H              1 <1>                0.0000
     60 H60         -2.4708  -0.4673   6.7020 H              1 <1>                0.0000
     61 H61         -4.0056  -1.2636   6.2801 H              1 <1>                0.0000
     62 H62         -2.1831  -1.4078   4.4896 H              1 <1>                0.0000
     63 H63         -3.7306  -0.7193   3.9333 H              1 <1>                0.0000
     64 H64         -0.7444  -2.3738   0.6778 H              1 <1>                0.0000
@<TRIPOS>BOND
    1    1    2 1     
    2    1   34 1     
    3    1   35 1     
    4    1   36 1     
    5    2    3 1     
    6    2    4 1     
    7    2    5 1     
    8    4   37 1     
    9    4   38 1     
   10    4   39 1     
   11    5    6 1     
   12    5   40 1     
   13    5   41 1     
   14    6    7 1     
   15    6   42 1     
   16    6   43 1     
   17    7    8 1     
   18    7   14 1     
   19    7   44 1     
   20    8   13 ar    
   21    8    9 ar    
   22    9   10 ar    
   23    9   45 1     
   24   10   11 ar    
   25   10   46 1     
   26   11   12 ar    
   27   11   47 1     
   28   12   13 ar    
   29   12   48 1     
   30   13   49 1     
   31   14   33 1     
   32   14   15 1     
   33   15   16 2     
   34   15   50 1     
   35   16   17 1     
   36   16   32 1     
   37   17   18 am    
   38   17   51 1     
   39   18   19 2     
   40   18   20 1     
   41   20   31 1     
   42   20   21 2     
   43   21   22 1     
   44   22   23 1     
   45   22   24 1     
   46   24   31 2     
   47   24   25 1     
   48   25   26 1     
   49   25   52 1     
   50   25   53 1     
   51   26   27 1     
   52   26   28 1     
   53   26   29 1     
   54   27   54 1     
   55   27   55 1     
   56   27   56 1     
   57   28   57 1     
   58   28   58 1     
   59   28   59 1     
   60   29   30 1     
   61   29   60 1     
   62   29   61 1     
   63   30   31 1     
   64   30   62 1     
   65   30   63 1     
   66   32   33 2     
   67   32   64 1     
@<TRIPOS>SUBSTRUCTURE
      1 ****           1
@<TRIPOS>SET
DONOR_HYDROGENS      STATIC     ATOMS    <user>   **** ""
3 3 51 23
ATOM$RED        STATIC     ATOMS    COLORGROUP SYSTEM
3 3 51 23
