#       Name:                2X6
#       Creating user name   gbret
#       Creation time:       Thu Sep  8 22:04:24 2016


#       File generated by GOLD software.
#

@<TRIPOS>MOLECULE
2X6
    53    57     1
SMALL
NO_CHARGES


@<TRIPOS>ATOM
      1 N1          -2.1636   3.5380  -1.3278 N.4            1 <1>                0.0000
      2 H2          -1.9917   2.6121  -1.6903 H              1 <1>                0.0000
      3 H3          -1.3712   4.1298  -1.5276 H              1 <1>                0.0000
      4 H4          -2.9886   3.9220  -1.7637 H              1 <1>                0.0000
      5 C5          -2.3663   3.4651   0.1253 C.3            1 <1>                0.0000
      6 C6          -3.5679   2.5677   0.4282 C.3            1 <1>                0.0000
      7 C7          -3.7791   2.4919   1.9417 C.3            1 <1>                0.0000
      8 C8          -2.5281   1.9095   2.6026 C.3            1 <1>                0.0000
      9 C9          -1.3266   2.8070   2.2997 C.3            1 <1>                0.0000
     10 C10         -1.1154   2.8828   0.7862 C.3            1 <1>                0.0000
     11 N11         -0.8659   1.5385   0.2600 N.pl3          1 <1>                0.0000
     12 C12          0.4174   1.0138   0.2789 C.ar           1 <1>                0.0000
     13 C13          1.4523   1.7747   0.8055 C.ar           1 <1>                0.0000
     14 C14          2.7385   1.2380   0.8198 C.ar           1 <1>                0.0000
     15 N15          3.8037   1.9107   1.3146 N.2            1 <1>                0.0000
     16 C16          4.9934   1.3863   1.3162 C.2            1 <1>                0.0000
     17 N17          5.2635   0.1467   0.8320 N.am           1 <1>                0.0000
     18 H18          6.1722  -0.1914   0.8601 H              1 <1>                0.0000
     19 C19          4.2791  -0.6229   0.3108 C.2            1 <1>                0.0000
     20 O20          4.5099  -1.7361  -0.1259 O.2            1 <1>                0.0000
     21 C21          2.9273  -0.0645   0.2934 C.ar           1 <1>                0.0000
     22 C22          1.8274  -0.7643  -0.2192 C.ar           1 <1>                0.0000
     23 N23          1.9943  -2.0360  -0.7364 N.pl3          1 <1>                0.0000
     24 C24          0.9225  -2.6839  -1.3599 C.ar           1 <1>                0.0000
     25 C25         -0.0466  -1.9480  -2.0198 C.ar           1 <1>                0.0000
     26 C26         -1.1130  -2.5818  -2.6408 C.ar           1 <1>                0.0000
     27 C27         -1.2253  -3.9434  -2.6120 C.ar           1 <1>                0.0000
     28 C28         -0.2593  -4.7083  -1.9525 C.ar           1 <1>                0.0000
     29 C29         -0.0751  -6.1448  -1.7329 C.2            1 <1>                0.0000
     30 C30          1.0517  -6.2916  -1.0177 C.2            1 <1>                0.0000
     31 N31          1.6037  -5.0668  -0.7617 N.pl3          1 <1>                0.0000
     32 H32          2.4212  -4.9174  -0.2615 H              1 <1>                0.0000
     33 C33          0.8276  -4.0770  -1.3247 C.ar           1 <1>                0.0000
     34 N34          0.6254  -0.2063  -0.2022 N.ar           1 <1>                0.0000
     35 H35         -2.5520   4.4653   0.5168 H              1 <1>                0.0000
     36 H36         -4.4591   2.9826  -0.0427 H              1 <1>                0.0000
     37 H37         -3.3823   1.5676   0.0367 H              1 <1>                0.0000
     38 H38         -3.9647   3.4920   2.3332 H              1 <1>                0.0000
     39 H39         -4.6351   1.8525   2.1575 H              1 <1>                0.0000
     40 H40         -2.6786   1.8555   3.6808 H              1 <1>                0.0000
     41 H41         -2.3425   0.9094   2.2111 H              1 <1>                0.0000
     42 H42         -1.5122   3.8071   2.6912 H              1 <1>                0.0000
     43 H43         -0.4353   2.3921   2.7706 H              1 <1>                0.0000
     44 H44         -0.2594   3.5221   0.5704 H              1 <1>                0.0000
     45 H45         -1.5984   1.0156  -0.1016 H              1 <1>                0.0000
     46 H46          1.2645   2.7638   1.1963 H              1 <1>                0.0000
     47 H47          5.8086   1.9663   1.7230 H              1 <1>                0.0000
     48 H48          2.8545  -2.4788  -0.6669 H              1 <1>                0.0000
     49 H49          0.0279  -0.8710  -2.0511 H              1 <1>                0.0000
     50 H50         -1.8613  -1.9938  -3.1514 H              1 <1>                0.0000
     51 H51         -2.0595  -4.4276  -3.0979 H              1 <1>                0.0000
     52 H52         -0.7232  -6.9360  -2.0799 H              1 <1>                0.0000
     53 H53          1.4614  -7.2366  -0.6929 H              1 <1>                0.0000
@<TRIPOS>BOND
    1    1    2 1     
    2    1    3 1     
    3    1    4 1     
    4    1    5 1     
    5    5   10 1     
    6    5    6 1     
    7    5   35 1     
    8    6    7 1     
    9    6   36 1     
   10    6   37 1     
   11    7    8 1     
   12    7   38 1     
   13    7   39 1     
   14    8    9 1     
   15    8   40 1     
   16    8   41 1     
   17    9   10 1     
   18    9   42 1     
   19    9   43 1     
   20   10   11 1     
   21   10   44 1     
   22   11   12 1     
   23   11   45 1     
   24   12   34 ar    
   25   12   13 ar    
   26   13   14 ar    
   27   13   46 1     
   28   14   21 ar    
   29   14   15 1     
   30   15   16 2     
   31   16   17 1     
   32   16   47 1     
   33   17   18 1     
   34   17   19 am    
   35   19   20 2     
   36   19   21 1     
   37   21   22 ar    
   38   22   23 1     
   39   22   34 ar    
   40   23   24 1     
   41   23   48 1     
   42   24   33 ar    
   43   24   25 ar    
   44   25   26 ar    
   45   25   49 1     
   46   26   27 ar    
   47   26   50 1     
   48   27   28 ar    
   49   27   51 1     
   50   28   33 ar    
   51   28   29 1     
   52   29   30 2     
   53   29   52 1     
   54   30   31 1     
   55   30   53 1     
   56   31   32 1     
   57   31   33 1     
@<TRIPOS>SUBSTRUCTURE
      1 ****           1
@<TRIPOS>SET
DONOR_HYDROGENS      STATIC     ATOMS    <user>   **** ""
7 2 3 4 45 18 48 32
ATOM$RED        STATIC     ATOMS    COLORGROUP SYSTEM
7 2 3 4 45 18 48 32
