#       Name:                2XQ
#       Creating user name   gbret
#       Creation time:       Thu Sep  8 22:05:37 2016


#       File generated by GOLD software.
#

@<TRIPOS>MOLECULE
2XQ
    57    60     1
SMALL
NO_CHARGES


@<TRIPOS>ATOM
      1 C1          -0.3879  -0.1880  -2.2780 C.3            1 <1>                0.0000
      2 C2          -0.3674  -1.6949  -2.2863 C.2            1 <1>                0.0000
      3 C3          -0.3608  -2.4936  -3.3619 C.2            1 <1>                0.0000
      4 C4          -0.3738  -2.0164  -4.7913 C.3            1 <1>                0.0000
      5 O5           0.9692  -1.8465  -5.2490 O.3            1 <1>                0.0000
      6 C6           1.1358  -1.4171  -6.5286 C.ar           1 <1>                0.0000
      7 C7           0.0294  -1.1595  -7.3237 C.ar           1 <1>                0.0000
      8 C8           0.1986  -0.7232  -8.6241 C.ar           1 <1>                0.0000
      9 C9           1.4721  -0.5429  -9.1353 C.ar           1 <1>                0.0000
     10 F10          1.6348  -0.1166 -10.4070 F              1 <1>                0.0000
     11 C11          2.5808  -0.7988  -8.3435 C.ar           1 <1>                0.0000
     12 F12          3.8235  -0.6222  -8.8432 F              1 <1>                0.0000
     13 C13          2.4139  -1.2308  -7.0381 C.ar           1 <1>                0.0000
     14 F14          3.4933  -1.4807  -6.2651 F              1 <1>                0.0000
     15 O15         -0.3410  -3.7831  -2.9806 O.3            1 <1>                0.0000
     16 C16         -0.3337  -3.8868  -1.6362 C.ar           1 <1>                0.0000
     17 C17         -0.3146  -4.9676  -0.7621 C.ar           1 <1>                0.0000
     18 C18         -0.3117  -4.7545   0.5996 C.ar           1 <1>                0.0000
     19 C19         -0.3276  -3.4672   1.1157 C.ar           1 <1>                0.0000
     20 C20         -0.3467  -2.3772   0.2656 C.ar           1 <1>                0.0000
     21 O21         -0.3623  -1.1158   0.7703 O.3            1 <1>                0.0000
     22 C22         -0.3579  -0.9863   2.1934 C.3            1 <1>                0.0000
     23 C23         -0.3772   0.4963   2.5707 C.3            1 <1>                0.0000
     24 C24         -0.3726   0.6349   4.0944 C.3            1 <1>                0.0000
     25 N25         -0.3911   2.0584   4.4567 N.4            1 <1>                0.0000
     26 H26          0.4248   2.5132   4.0751 H              1 <1>                0.0000
     27 H27         -1.2228   2.4899   4.0823 H              1 <1>                0.0000
     28 C28         -0.3866   2.1915   5.9196 C.3            1 <1>                0.0000
     29 C29         -0.4056   3.6518   6.2913 C.ar           1 <1>                0.0000
     30 C30          0.7812   4.3505   6.4536 C.ar           1 <1>                0.0000
     31 C31          0.7154   5.6923   6.7958 C.ar           1 <1>                0.0000
     32 C32         -0.5222   6.2849   6.9625 C.ar           1 <1>                0.0000
     33 N33         -1.6305   5.5893   6.8004 N.ar           1 <1>                0.0000
     34 C34         -1.6059   4.3129   6.4690 C.ar           1 <1>                0.0000
     35 C35         -0.3443  -2.5825  -1.1177 C.ar           1 <1>                0.0000
     36 H36          0.6347   0.1893  -2.2857 H              1 <1>                0.0000
     37 H37         -0.9150   0.1731  -3.1611 H              1 <1>                0.0000
     38 H38         -0.8981   0.1635  -1.3812 H              1 <1>                0.0000
     39 H39         -0.8800  -2.7526  -5.4156 H              1 <1>                0.0000
     40 H40         -0.9014  -1.0645  -4.8518 H              1 <1>                0.0000
     41 H41         -0.9651  -1.3003  -6.9267 H              1 <1>                0.0000
     42 H42         -0.6641  -0.5229  -9.2422 H              1 <1>                0.0000
     43 H43         -0.3024  -5.9753  -1.1504 H              1 <1>                0.0000
     44 H44         -0.2971  -5.5993   1.2722 H              1 <1>                0.0000
     45 H45         -0.3254  -3.3160   2.1850 H              1 <1>                0.0000
     46 H46         -1.2393  -1.4777   2.6057 H              1 <1>                0.0000
     47 H47          0.5405  -1.4525   2.5979 H              1 <1>                0.0000
     48 H48          0.5041   0.9876   2.1585 H              1 <1>                0.0000
     49 H49         -1.2757   0.9625   2.1663 H              1 <1>                0.0000
     50 H50         -1.2539   0.1436   4.5067 H              1 <1>                0.0000
     51 H51          0.5259   0.1687   4.4989 H              1 <1>                0.0000
     52 H52         -1.2679   1.7001   6.3319 H              1 <1>                0.0000
     53 H53          0.5118   1.7253   6.3241 H              1 <1>                0.0000
     54 H54          1.7341   3.8608   6.3171 H              1 <1>                0.0000
     55 H55          1.6197   6.2672   6.9307 H              1 <1>                0.0000
     56 H56         -0.5820   7.3298   7.2291 H              1 <1>                0.0000
     57 H57         -2.5346   3.7758   6.3446 H              1 <1>                0.0000
@<TRIPOS>BOND
    1    1    2 1     
    2    1   36 1     
    3    1   37 1     
    4    1   38 1     
    5    2   35 1     
    6    2    3 2     
    7    3    4 1     
    8    3   15 1     
    9    4    5 1     
   10    4   39 1     
   11    4   40 1     
   12    5    6 1     
   13    6   13 ar    
   14    6    7 ar    
   15    7    8 ar    
   16    7   41 1     
   17    8    9 ar    
   18    8   42 1     
   19    9   10 1     
   20    9   11 ar    
   21   11   12 1     
   22   11   13 ar    
   23   13   14 1     
   24   15   16 1     
   25   16   35 ar    
   26   16   17 ar    
   27   17   18 ar    
   28   17   43 1     
   29   18   19 ar    
   30   18   44 1     
   31   19   20 ar    
   32   19   45 1     
   33   20   21 1     
   34   20   35 ar    
   35   21   22 1     
   36   22   23 1     
   37   22   46 1     
   38   22   47 1     
   39   23   24 1     
   40   23   48 1     
   41   23   49 1     
   42   24   25 1     
   43   24   50 1     
   44   24   51 1     
   45   25   26 1     
   46   25   27 1     
   47   25   28 1     
   48   28   29 1     
   49   28   52 1     
   50   28   53 1     
   51   29   34 ar    
   52   29   30 ar    
   53   30   31 ar    
   54   30   54 1     
   55   31   32 ar    
   56   31   55 1     
   57   32   33 ar    
   58   32   56 1     
   59   33   34 ar    
   60   34   57 1     
@<TRIPOS>SUBSTRUCTURE
      1 ****           1
@<TRIPOS>SET
DONOR_HYDROGENS      STATIC     ATOMS    <user>   **** ""
2 26 27
ATOM$RED        STATIC     ATOMS    COLORGROUP SYSTEM
2 26 27
