#       Name:                2Y0
#       Creating user name   gbret
#       Creation time:       Thu Sep  8 22:06:22 2016


#       File generated by GOLD software.
#

@<TRIPOS>MOLECULE
2Y0
    58    60     1
SMALL
NO_CHARGES


@<TRIPOS>ATOM
      1 C1           1.0879   6.5065  -1.9615 C.3            1 <1>                0.0000
      2 C2           1.1087   4.9766  -1.9699 C.3            1 <1>                0.0000
      3 C3          -0.3267   4.4471  -1.9590 C.3            1 <1>                0.0000
      4 C4          -0.3063   2.9402  -1.9673 C.2            1 <1>                0.0000
      5 S5          -0.2982   1.9148  -3.4008 S.3            1 <1>                0.0000
      6 C6          -0.2746   0.4850  -2.3718 C.2            1 <1>                0.0000
      7 N7          -0.2746   0.8589  -1.1244 N.2            1 <1>                0.0000
      8 C8          -0.2853   2.1505  -0.8883 C.2            1 <1>                0.0000
      9 C9          -0.2860   2.7082   0.5117 C.3            1 <1>                0.0000
     10 S10          1.4201   2.9459   1.0673 S.3            1 <1>                0.0000
     11 C11          1.1294   3.5866   2.6827 C.ar           1 <1>                0.0000
     12 N12         -0.1184   3.7361   3.1027 N.ar           1 <1>                0.0000
     13 C13         -0.3759   4.2170   4.3167 C.ar           1 <1>                0.0000
     14 N14         -1.6842   4.3698   4.7486 N.pl3          1 <1>                0.0000
     15 C15          0.6858   4.5640   5.1472 C.ar           1 <1>                0.0000
     16 C16          1.9826   4.3930   4.6714 C.ar           1 <1>                0.0000
     17 N17          3.0707   4.7247   5.4637 N.pl3          1 <1>                0.0000
     18 N18          2.1643   3.9014   3.4480 N.ar           1 <1>                0.0000
     19 C19         -0.2583  -0.9149  -2.8481 C.ar           1 <1>                0.0000
     20 C20         -0.2551  -1.1890  -4.2168 C.ar           1 <1>                0.0000
     21 C21         -0.2394  -2.4962  -4.6578 C.ar           1 <1>                0.0000
     22 C22         -0.2268  -3.5373  -3.7478 C.ar           1 <1>                0.0000
     23 C23         -0.2303  -3.2743  -2.3848 C.ar           1 <1>                0.0000
     24 O24         -0.2183  -4.3013  -1.4948 O.3            1 <1>                0.0000
     25 C25         -0.2023  -5.6253  -2.0322 C.3            1 <1>                0.0000
     26 C26         -0.1905  -6.6403  -0.8874 C.3            1 <1>                0.0000
     27 N27         -1.4438  -6.5424  -0.1350 N.pl3          1 <1>                0.0000
     28 S28         -1.8756  -7.7481   0.9148 S.o2           1 <1>                0.0000
     29 C29         -0.6069  -7.6961   2.2103 C.3            1 <1>                0.0000
     30 O30         -3.1321  -7.3304   1.4304 O.2            1 <1>                0.0000
     31 O31         -1.7574  -8.9390   0.1486 O.2            1 <1>                0.0000
     32 C32         -0.2402  -1.9656  -1.9315 C.ar           1 <1>                0.0000
     33 H33          2.1105   6.8838  -1.9692 H              1 <1>                0.0000
     34 H34          0.5607   6.8675  -2.8445 H              1 <1>                0.0000
     35 H35          0.5777   6.8580  -1.0647 H              1 <1>                0.0000
     36 H36          1.6189   4.6251  -2.8667 H              1 <1>                0.0000
     37 H37          1.6359   4.6156  -1.0868 H              1 <1>                0.0000
     38 H38         -0.8369   4.7986  -1.0622 H              1 <1>                0.0000
     39 H39         -0.8539   4.8081  -2.8421 H              1 <1>                0.0000
     40 H40         -0.8079   3.6651   0.5214 H              1 <1>                0.0000
     41 H41         -0.7920   2.0115   1.1800 H              1 <1>                0.0000
     42 H42         -2.4193   4.1256   4.1647 H              1 <1>                0.0000
     43 H43         -1.8646   4.7211   5.6347 H              1 <1>                0.0000
     44 H44          0.5076   4.9571   6.1372 H              1 <1>                0.0000
     45 H45          2.9311   5.0786   6.3560 H              1 <1>                0.0000
     46 H46          3.9718   4.6030   5.1258 H              1 <1>                0.0000
     47 H47         -0.2653  -0.3782  -4.9302 H              1 <1>                0.0000
     48 H48         -0.2374  -2.7071  -5.7170 H              1 <1>                0.0000
     49 H49         -0.2145  -4.5586  -4.0987 H              1 <1>                0.0000
     50 H50         -1.0904  -5.7793  -2.6452 H              1 <1>                0.0000
     51 H51          0.6895  -5.7581  -2.6447 H              1 <1>                0.0000
     52 H52         -0.0888  -7.6462  -1.2947 H              1 <1>                0.0000
     53 H53          0.6487  -6.4302  -0.2242 H              1 <1>                0.0000
     54 H54         -2.0206  -5.7714  -0.2519 H              1 <1>                0.0000
     55 H55         -0.6163  -6.7169   2.6891 H              1 <1>                0.0000
     56 H56         -0.8147  -8.4659   2.9535 H              1 <1>                0.0000
     57 H57          0.3728  -7.8742   1.7668 H              1 <1>                0.0000
     58 H58         -0.2429  -1.7596  -0.8713 H              1 <1>                0.0000
@<TRIPOS>BOND
    1    1    2 1     
    2    1   33 1     
    3    1   34 1     
    4    1   35 1     
    5    2    3 1     
    6    2   36 1     
    7    2   37 1     
    8    3    4 1     
    9    3   38 1     
   10    3   39 1     
   11    4    8 2     
   12    4    5 1     
   13    5    6 1     
   14    6    7 2     
   15    6   19 1     
   16    7    8 1     
   17    8    9 1     
   18    9   10 1     
   19    9   40 1     
   20    9   41 1     
   21   10   11 1     
   22   11   18 ar    
   23   11   12 ar    
   24   12   13 ar    
   25   13   14 1     
   26   13   15 ar    
   27   14   42 1     
   28   14   43 1     
   29   15   16 ar    
   30   15   44 1     
   31   16   17 1     
   32   16   18 ar    
   33   17   45 1     
   34   17   46 1     
   35   19   32 ar    
   36   19   20 ar    
   37   20   21 ar    
   38   20   47 1     
   39   21   22 ar    
   40   21   48 1     
   41   22   23 ar    
   42   22   49 1     
   43   23   24 1     
   44   23   32 ar    
   45   24   25 1     
   46   25   26 1     
   47   25   50 1     
   48   25   51 1     
   49   26   27 1     
   50   26   52 1     
   51   26   53 1     
   52   27   28 1     
   53   27   54 1     
   54   28   29 1     
   55   28   30 2     
   56   28   31 2     
   57   29   55 1     
   58   29   56 1     
   59   29   57 1     
   60   32   58 1     
@<TRIPOS>SUBSTRUCTURE
      1 ****           1
@<TRIPOS>SET
DONOR_HYDROGENS      STATIC     ATOMS    <user>   **** ""
5 42 43 45 46 54
ATOM$RED        STATIC     ATOMS    COLORGROUP SYSTEM
5 42 43 45 46 54
