#       Name:                2Y7
#       Creating user name   gbret
#       Creation time:       Thu Sep  8 22:07:01 2016


#       File generated by GOLD software.
#

@<TRIPOS>MOLECULE
2Y7
    51    53     1
SMALL
NO_CHARGES


@<TRIPOS>ATOM
      1 C1          -3.1760   3.0430   5.2358 C.3            1 <1>                0.0000
      2 O2          -3.1566   1.6141   5.2279 O.3            1 <1>                0.0000
      3 C3          -2.5527   1.0109   4.1699 C.ar           1 <1>                0.0000
      4 C4          -1.9864   1.7811   3.1648 C.ar           1 <1>                0.0000
      5 C5          -1.3722   1.1736   2.0895 C.ar           1 <1>                0.0000
      6 C6          -1.3194  -0.2189   2.0109 C.ar           1 <1>                0.0000
      7 C7          -1.8892  -0.9942   3.0222 C.ar           1 <1>                0.0000
      8 C8          -2.4988  -0.3792   4.1002 C.ar           1 <1>                0.0000
      9 O9          -3.0549  -1.1316   5.0872 O.3            1 <1>                0.0000
     10 C10         -2.9726  -2.5512   4.9454 C.3            1 <1>                0.0000
     11 C11         -3.6475  -3.2234   6.1427 C.3            1 <1>                0.0000
     12 F12         -5.0152  -2.9292   6.1328 F              1 <1>                0.0000
     13 C13         -0.6619  -0.8714   0.8590 C.2            1 <1>                0.0000
     14 N14         -0.0944  -0.2532  -0.1371 N.2            1 <1>                0.0000
     15 C15          0.4421  -1.0001  -1.0753 C.2            1 <1>                0.0000
     16 C16          1.1280  -0.4045  -2.2777 C.3            1 <1>                0.0000
     17 C17          0.0766   0.1381  -3.2478 C.3            1 <1>                0.0000
     18 S18          2.2125   0.9440  -1.7473 S.3            1 <1>                0.0000
     19 C19          2.9781   1.3432  -3.2832 C.ar           1 <1>                0.0000
     20 N20          2.6391   0.6637  -4.3691 N.ar           1 <1>                0.0000
     21 C21          3.1965   0.9376  -5.5462 C.ar           1 <1>                0.0000
     22 N22          2.8359   0.2222  -6.6775 N.pl3          1 <1>                0.0000
     23 C23          4.1460   1.9521  -5.6265 C.ar           1 <1>                0.0000
     24 C24          4.4765   2.6439  -4.4648 C.ar           1 <1>                0.0000
     25 N25          5.4165   3.6623  -4.4973 N.pl3          1 <1>                0.0000
     26 N26          3.8740   2.3187  -3.3235 N.ar           1 <1>                0.0000
     27 C27          0.3423  -2.3210  -0.8970 C.2            1 <1>                0.0000
     28 C28          0.8750  -3.3806  -1.8268 C.3            1 <1>                0.0000
     29 S29         -0.5134  -2.6100   0.6165 S.3            1 <1>                0.0000
     30 H30         -2.1534   3.4203   5.2280 H              1 <1>                0.0000
     31 H31         -3.7032   3.4041   4.3527 H              1 <1>                0.0000
     32 H32         -3.6862   3.3945   6.1326 H              1 <1>                0.0000
     33 H33         -2.0269   2.8587   3.2241 H              1 <1>                0.0000
     34 H34         -0.9324   1.7756   1.3081 H              1 <1>                0.0000
     35 H35         -1.8503  -2.0719   2.9649 H              1 <1>                0.0000
     36 H36         -3.4757  -2.8544   4.0272 H              1 <1>                0.0000
     37 H37         -1.9257  -2.8519   4.9024 H              1 <1>                0.0000
     38 H38         -3.5075  -4.3025   6.0800 H              1 <1>                0.0000
     39 H39         -3.2027  -2.8523   7.0660 H              1 <1>                0.0000
     40 H40          1.7200  -1.1723  -2.7757 H              1 <1>                0.0000
     41 H41          0.5728   0.5689  -4.1175 H              1 <1>                0.0000
     42 H42         -0.5765  -0.6739  -3.5673 H              1 <1>                0.0000
     43 H43         -0.5153   0.9060  -2.7498 H              1 <1>                0.0000
     44 H44          2.1732  -0.4833  -6.6144 H              1 <1>                0.0000
     45 H45          3.2461   0.4273  -7.5322 H              1 <1>                0.0000
     46 H46          4.6155   2.1966  -6.5679 H              1 <1>                0.0000
     47 H47          5.8486   3.8969  -5.3334 H              1 <1>                0.0000
     48 H48          5.6420   4.1403  -3.6840 H              1 <1>                0.0000
     49 H49          1.8958  -3.6347  -1.5413 H              1 <1>                0.0000
     50 H50          0.2476  -4.2696  -1.7620 H              1 <1>                0.0000
     51 H51          0.8669  -3.0039  -2.8496 H              1 <1>                0.0000
@<TRIPOS>BOND
    1    1    2 1     
    2    1   30 1     
    3    1   31 1     
    4    1   32 1     
    5    2    3 1     
    6    3    8 ar    
    7    3    4 ar    
    8    4    5 ar    
    9    4   33 1     
   10    5    6 ar    
   11    5   34 1     
   12    6    7 ar    
   13    6   13 1     
   14    7    8 ar    
   15    7   35 1     
   16    8    9 1     
   17    9   10 1     
   18   10   11 1     
   19   10   36 1     
   20   10   37 1     
   21   11   12 1     
   22   11   38 1     
   23   11   39 1     
   24   13   29 1     
   25   13   14 2     
   26   14   15 1     
   27   15   16 1     
   28   15   27 2     
   29   16   17 1     
   30   16   18 1     
   31   16   40 1     
   32   17   41 1     
   33   17   42 1     
   34   17   43 1     
   35   18   19 1     
   36   19   26 ar    
   37   19   20 ar    
   38   20   21 ar    
   39   21   22 1     
   40   21   23 ar    
   41   22   44 1     
   42   22   45 1     
   43   23   24 ar    
   44   23   46 1     
   45   24   25 1     
   46   24   26 ar    
   47   25   47 1     
   48   25   48 1     
   49   27   28 1     
   50   27   29 1     
   51   28   49 1     
   52   28   50 1     
   53   28   51 1     
@<TRIPOS>SUBSTRUCTURE
      1 ****           1
@<TRIPOS>SET
DONOR_HYDROGENS      STATIC     ATOMS    <user>   **** ""
4 44 45 47 48
ATOM$RED        STATIC     ATOMS    COLORGROUP SYSTEM
4 44 45 47 48
