#       Name:                2YK
#       Creating user name   gbret
#       Creation time:       Thu Sep  8 22:07:50 2016


#       File generated by GOLD software.
#

@<TRIPOS>MOLECULE
2YK
    42    45     1
SMALL
NO_CHARGES


@<TRIPOS>ATOM
      1 C1          -0.8370   1.5702  -3.7249 C.3            1 <1>                0.0000
      2 O2          -0.6085   0.5905  -2.7101 O.3            1 <1>                0.0000
      3 C3          -1.5861   0.4261  -1.7794 C.ar           1 <1>                0.0000
      4 C4          -2.7428   1.1890  -1.8471 C.ar           1 <1>                0.0000
      5 C5          -3.7389   1.0249  -0.9022 C.ar           1 <1>                0.0000
      6 C6          -3.5848   0.0977   0.1147 C.ar           1 <1>                0.0000
      7 O7          -4.5658  -0.0633   1.0438 O.3            1 <1>                0.0000
      8 C8          -5.7278   0.7575   0.9093 C.3            1 <1>                0.0000
      9 C9          -2.4245  -0.6705   0.1855 C.ar           1 <1>                0.0000
     10 S10         -2.2250  -1.8512   1.4781 S.3            1 <1>                0.0000
     11 C11         -0.5747  -2.4218   1.2425 C.2            1 <1>                0.0000
     12 C12         -0.3310  -3.8006   1.0827 C.2            1 <1>                0.0000
     13 C13          0.9377  -4.2527   0.9008 C.2            1 <1>                0.0000
     14 C14          1.9985  -3.3272   0.8742 C.2            1 <1>                0.0000
     15 N15          3.3083  -3.4420   0.7203 N.2            1 <1>                0.0000
     16 N16          3.8531  -2.2772   0.7729 N.2            1 <1>                0.0000
     17 C17          2.9306  -1.3530   0.9626 C.2            1 <1>                0.0000
     18 C18          3.1600   0.1045   1.0771 C.2            1 <1>                0.0000
     19 C19          2.2478   1.0551   1.5797 C.2            1 <1>                0.0000
     20 N20          2.8132   2.2314   1.5197 N.2            1 <1>                0.0000
     21 N21          4.0971   2.0825   0.9818 N.pl3          1 <1>                0.0000
     22 C22          5.0606   3.1611   0.7483 C.3            1 <1>                0.0000
     23 C23          4.2965   0.7741   0.7208 C.2            1 <1>                0.0000
     24 N24          1.7279  -1.9890   1.0325 N.pl3          1 <1>                0.0000
     25 N25          0.4127  -1.5565   1.2126 N.2            1 <1>                0.0000
     26 C26         -1.4286  -0.5076  -0.7671 C.ar           1 <1>                0.0000
     27 H27          0.0178   1.5998  -4.4005 H              1 <1>                0.0000
     28 H28         -1.7346   1.3097  -4.2859 H              1 <1>                0.0000
     29 H29         -0.9687   2.5485  -3.2625 H              1 <1>                0.0000
     30 H30         -2.8654   1.9128  -2.6392 H              1 <1>                0.0000
     31 H31         -4.6380   1.6207  -0.9571 H              1 <1>                0.0000
     32 H32         -6.4290   0.5289   1.7119 H              1 <1>                0.0000
     33 H33         -5.4398   1.8072   0.9664 H              1 <1>                0.0000
     34 H34         -6.2010   0.5625  -0.0531 H              1 <1>                0.0000
     35 H35         -1.1541  -4.4995   1.1052 H              1 <1>                0.0000
     36 H36          1.1298  -5.3084   0.7786 H              1 <1>                0.0000
     37 H37          1.2546   0.8472   1.9493 H              1 <1>                0.0000
     38 H38          5.6795   3.2939   1.6356 H              1 <1>                0.0000
     39 H39          5.6937   2.9051  -0.1013 H              1 <1>                0.0000
     40 H40          4.5254   4.0868   0.5367 H              1 <1>                0.0000
     41 H41          5.1898   0.3362   0.3004 H              1 <1>                0.0000
     42 H42         -0.5283  -1.1019  -0.7151 H              1 <1>                0.0000
@<TRIPOS>BOND
    1    1    2 1     
    2    1   27 1     
    3    1   28 1     
    4    1   29 1     
    5    2    3 1     
    6    3   26 ar    
    7    3    4 ar    
    8    4    5 ar    
    9    4   30 1     
   10    5    6 ar    
   11    5   31 1     
   12    6    7 1     
   13    6    9 ar    
   14    7    8 1     
   15    8   32 1     
   16    8   33 1     
   17    8   34 1     
   18    9   10 1     
   19    9   26 ar    
   20   10   11 1     
   21   11   25 2     
   22   11   12 1     
   23   12   13 2     
   24   12   35 1     
   25   13   14 1     
   26   13   36 1     
   27   14   24 1     
   28   14   15 2     
   29   15   16 1     
   30   16   17 2     
   31   17   18 1     
   32   17   24 1     
   33   18   23 2     
   34   18   19 1     
   35   19   20 2     
   36   19   37 1     
   37   20   21 1     
   38   21   22 1     
   39   21   23 1     
   40   22   38 1     
   41   22   39 1     
   42   22   40 1     
   43   23   41 1     
   44   24   25 1     
   45   26   42 1     
@<TRIPOS>SUBSTRUCTURE
      1 ****           1
