#       Name:                2YW
#       Creating user name   gbret
#       Creation time:       Thu Sep  8 22:08:42 2016


#       File generated by GOLD software.
#

@<TRIPOS>MOLECULE
2YW
    46    49     1
SMALL
NO_CHARGES


@<TRIPOS>ATOM
      1 C1           1.8355   8.4431   2.8144 C.3            1 <1>                0.0000
      2 O2           1.8552   6.9912   2.8064 O.3            1 <1>                0.0000
      3 C3           2.4536   6.3935   1.7580 C.2            1 <1>                0.0000
      4 O4           2.9455   7.0667   0.8746 O.2            1 <1>                0.0000
      5 C5           2.5116   4.9193   1.6825 C.ar           1 <1>                0.0000
      6 C6           1.9422   4.1424   2.6934 C.ar           1 <1>                0.0000
      7 C7           2.0000   2.7663   2.6167 C.ar           1 <1>                0.0000
      8 C8           2.6205   2.1557   1.5412 C.ar           1 <1>                0.0000
      9 C9           2.6797   0.6518   1.4643 C.3            1 <1>                0.0000
     10 C10          1.4472   0.1301   0.7228 C.3            1 <1>                0.0000
     11 N11          1.5048  -1.3319   0.6481 N.pl3          1 <1>                0.0000
     12 C12          0.4966  -2.0293   0.0217 C.2            1 <1>                0.0000
     13 N13          0.4460  -3.3338  -0.0967 N.2            1 <1>                0.0000
     14 C14         -0.6792  -3.6906  -0.7669 C.ar           1 <1>                0.0000
     15 C15         -1.2028  -4.9247  -1.1514 C.ar           1 <1>                0.0000
     16 C16         -2.4060  -4.9750  -1.8449 C.ar           1 <1>                0.0000
     17 N17         -2.9452  -6.1589  -2.2343 N.2            1 <1>                0.0000
     18 C18         -4.0774  -6.2128  -2.8870 C.2            1 <1>                0.0000
     19 N19         -4.5651  -7.4440  -3.2500 N.pl3          1 <1>                0.0000
     20 N20         -4.7977  -5.1027  -3.2240 N.am           1 <1>                0.0000
     21 H21         -5.6324  -5.2003  -3.7084 H              1 <1>                0.0000
     22 C22         -4.3583  -3.8682  -2.8884 C.2            1 <1>                0.0000
     23 O23         -4.9924  -2.8716  -3.1834 O.2            1 <1>                0.0000
     24 C24         -3.0901  -3.7728  -2.1554 C.ar           1 <1>                0.0000
     25 C25         -2.5626  -2.5420  -1.7689 C.ar           1 <1>                0.0000
     26 C26         -1.3678  -2.4997  -1.0806 C.ar           1 <1>                0.0000
     27 N27         -0.6000  -1.4645  -0.5622 N.pl3          1 <1>                0.0000
     28 H28         -0.8044  -0.5174  -0.6078 H              1 <1>                0.0000
     29 C29          3.1864   2.9195   0.5358 C.ar           1 <1>                0.0000
     30 C30          3.1311   4.2964   0.5972 C.ar           1 <1>                0.0000
     31 H31          2.8581   8.8204   2.8067 H              1 <1>                0.0000
     32 H32          1.3083   8.8042   1.9313 H              1 <1>                0.0000
     33 H33          1.3253   8.7946   3.7112 H              1 <1>                0.0000
     34 H34          1.4579   4.6178   3.5335 H              1 <1>                0.0000
     35 H35          1.5603   2.1642   3.3980 H              1 <1>                0.0000
     36 H36          3.5802   0.3505   0.9291 H              1 <1>                0.0000
     37 H37          2.7001   0.2370   2.4720 H              1 <1>                0.0000
     38 H38          0.5467   0.4314   1.2580 H              1 <1>                0.0000
     39 H39          1.4268   0.5449  -0.2849 H              1 <1>                0.0000
     40 H40          2.2532  -1.8084   1.0399 H              1 <1>                0.0000
     41 H41         -0.6759  -5.8364  -0.9117 H              1 <1>                0.0000
     42 H42         -4.0719  -8.2475  -3.0217 H              1 <1>                0.0000
     43 H43         -5.4026  -7.5102  -3.7346 H              1 <1>                0.0000
     44 H44         -3.0857  -1.6276  -2.0066 H              1 <1>                0.0000
     45 H45          3.6692   2.4364  -0.3009 H              1 <1>                0.0000
     46 H46          3.5733   4.8915  -0.1882 H              1 <1>                0.0000
@<TRIPOS>BOND
    1    1    2 1     
    2    1   31 1     
    3    1   32 1     
    4    1   33 1     
    5    2    3 1     
    6    3    4 2     
    7    3    5 1     
    8    5   30 ar    
    9    5    6 ar    
   10    6    7 ar    
   11    6   34 1     
   12    7    8 ar    
   13    7   35 1     
   14    8    9 1     
   15    8   29 ar    
   16    9   10 1     
   17    9   36 1     
   18    9   37 1     
   19   10   11 1     
   20   10   38 1     
   21   10   39 1     
   22   11   12 1     
   23   11   40 1     
   24   12   27 1     
   25   12   13 2     
   26   13   14 1     
   27   14   26 ar    
   28   14   15 ar    
   29   15   16 ar    
   30   15   41 1     
   31   16   24 ar    
   32   16   17 1     
   33   17   18 2     
   34   18   19 1     
   35   18   20 1     
   36   19   42 1     
   37   19   43 1     
   38   20   21 1     
   39   20   22 am    
   40   22   23 2     
   41   22   24 1     
   42   24   25 ar    
   43   25   26 ar    
   44   25   44 1     
   45   26   27 1     
   46   27   28 1     
   47   29   30 ar    
   48   29   45 1     
   49   30   46 1     
@<TRIPOS>SUBSTRUCTURE
      1 ****           1
@<TRIPOS>SET
DONOR_HYDROGENS      STATIC     ATOMS    <user>   **** ""
5 40 42 43 21 28
ATOM$RED        STATIC     ATOMS    COLORGROUP SYSTEM
5 40 42 43 21 28
