#       Name:                30R
#       Creating user name   gbret
#       Creation time:       Thu Sep  8 22:11:54 2016


#       File generated by GOLD software.
#

@<TRIPOS>MOLECULE
30R
    50    51     1
SMALL
NO_CHARGES


@<TRIPOS>ATOM
      1 C1          -1.8912   0.3098  -1.7400 C.3            1 <1>                0.0000
      2 C2          -1.6614  -1.1796  -2.0042 C.3            1 <1>                0.0000
      3 N3          -1.0883  -1.8048  -0.8097 N.pl3          1 <1>                0.0000
      4 C4          -1.7649  -1.6720   0.4829 C.3            1 <1>                0.0000
      5 C5          -1.3044  -0.4088   1.1635 C.ar           1 <1>                0.0000
      6 C6          -0.1115  -0.3953   1.8617 C.ar           1 <1>                0.0000
      7 C7           0.3110   0.7634   2.4861 C.ar           1 <1>                0.0000
      8 C8          -0.4594   1.9088   2.4118 C.ar           1 <1>                0.0000
      9 C9           0.0009   3.1719   3.0929 C.3            1 <1>                0.0000
     10 N10          0.8213   3.9588   2.1625 N.4            1 <1>                0.0000
     11 H11          1.6244   3.4167   1.8810 H              1 <1>                0.0000
     12 H12          0.2736   4.1958   1.3489 H              1 <1>                0.0000
     13 H13          1.1295   4.8045   2.6185 H              1 <1>                0.0000
     14 C14         -1.6517   1.8957   1.7124 C.ar           1 <1>                0.0000
     15 C15         -2.0722   0.7381   1.0849 C.ar           1 <1>                0.0000
     16 S16          0.3245  -2.6616  -0.9205 S.o2           1 <1>                0.0000
     17 O17          0.4189  -3.4352   0.2677 O.2            1 <1>                0.0000
     18 O18          0.3476  -3.2307  -2.2223 O.2            1 <1>                0.0000
     19 C19          1.6462  -1.4977  -0.8628 C.ar           1 <1>                0.0000
     20 C20          2.0284  -0.8290  -2.0110 C.ar           1 <1>                0.0000
     21 C21          3.0647   0.0839  -1.9670 C.ar           1 <1>                0.0000
     22 C22          3.7203   0.3292  -0.7721 C.ar           1 <1>                0.0000
     23 F23          4.7334   1.2219  -0.7278 F              1 <1>                0.0000
     24 C24          3.3365  -0.3406   0.3770 C.ar           1 <1>                0.0000
     25 C25          4.0490  -0.0748   1.6780 C.3            1 <1>                0.0000
     26 C26          2.2964  -1.2498   0.3315 C.ar           1 <1>                0.0000
     27 C27         -2.9752  -1.8396  -2.3353 C.2            1 <1>                0.0000
     28 O28         -3.5889  -2.4344  -1.4748 O.2            1 <1>                0.0000
     29 N29         -3.4681  -1.7688  -3.5877 N.am           1 <1>                0.0000
     30 O30         -4.7025  -2.3889  -3.8988 O.3            1 <1>                0.0000
     31 H31         -0.9977   0.7407  -1.2882 H              1 <1>                0.0000
     32 H32         -2.1033   0.8172  -2.6810 H              1 <1>                0.0000
     33 H33         -2.7362   0.4324  -1.0625 H              1 <1>                0.0000
     34 H34         -0.9740  -1.2982  -2.8417 H              1 <1>                0.0000
     35 H35         -2.8427  -1.6280   0.3259 H              1 <1>                0.0000
     36 H36         -1.5237  -2.5308   1.1092 H              1 <1>                0.0000
     37 H37          0.4904  -1.2902   1.9197 H              1 <1>                0.0000
     38 H38          1.2427   0.7737   3.0322 H              1 <1>                0.0000
     39 H39         -0.8667   3.7576   3.3969 H              1 <1>                0.0000
     40 H40          0.5926   2.9159   3.9718 H              1 <1>                0.0000
     41 H41         -2.2534   2.7907   1.6541 H              1 <1>                0.0000
     42 H42         -3.0038   0.7278   0.5385 H              1 <1>                0.0000
     43 H43          1.5169  -1.0204  -2.9428 H              1 <1>                0.0000
     44 H44          3.3635   0.6057  -2.8642 H              1 <1>                0.0000
     45 H45          3.5512   0.7391   2.2052 H              1 <1>                0.0000
     46 H46          4.0275  -0.9736   2.2943 H              1 <1>                0.0000
     47 H47          5.0835   0.2024   1.4757 H              1 <1>                0.0000
     48 H48          1.9966  -1.7723   1.2279 H              1 <1>                0.0000
     49 H49         -2.9773  -1.2931  -4.2759 H              1 <1>                0.0000
     50 H50         -4.9738  -2.2843  -4.8210 H              1 <1>                0.0000
@<TRIPOS>BOND
    1    1    2 1     
    2    1   31 1     
    3    1   32 1     
    4    1   33 1     
    5    2    3 1     
    6    2   27 1     
    7    2   34 1     
    8    3    4 1     
    9    3   16 1     
   10    4    5 1     
   11    4   35 1     
   12    4   36 1     
   13    5   15 ar    
   14    5    6 ar    
   15    6    7 ar    
   16    6   37 1     
   17    7    8 ar    
   18    7   38 1     
   19    8    9 1     
   20    8   14 ar    
   21    9   10 1     
   22    9   39 1     
   23    9   40 1     
   24   10   11 1     
   25   10   12 1     
   26   10   13 1     
   27   14   15 ar    
   28   14   41 1     
   29   15   42 1     
   30   16   17 2     
   31   16   18 2     
   32   16   19 1     
   33   19   26 ar    
   34   19   20 ar    
   35   20   21 ar    
   36   20   43 1     
   37   21   22 ar    
   38   21   44 1     
   39   22   23 1     
   40   22   24 ar    
   41   24   25 1     
   42   24   26 ar    
   43   25   45 1     
   44   25   46 1     
   45   25   47 1     
   46   26   48 1     
   47   27   28 2     
   48   27   29 am    
   49   29   30 1     
   50   29   49 1     
   51   30   50 1     
@<TRIPOS>SUBSTRUCTURE
      1 ****           1
@<TRIPOS>SET
DONOR_HYDROGENS      STATIC     ATOMS    <user>   **** ""
5 11 12 13 49 50
ATOM$RED        STATIC     ATOMS    COLORGROUP SYSTEM
5 11 12 13 49 50
