#       Name:                315
#       Creating user name   gbret
#       Creation time:       Thu Sep  8 22:12:41 2016


#       File generated by GOLD software.
#

@<TRIPOS>MOLECULE
315
    61    64     1
SMALL
NO_CHARGES


@<TRIPOS>ATOM
      1 C1          -4.2231   0.9781   6.2533 C.3            1 <1>                0.0000
      2 S2          -3.9130  -0.7592   5.8338 S.o2           1 <1>                0.0000
      3 O3          -2.8317  -1.2719   6.6001 O.2            1 <1>                0.0000
      4 O4          -5.1374  -1.4724   5.7259 O.2            1 <1>                0.0000
      5 C5          -3.2924  -0.7095   4.1855 C.ar           1 <1>                0.0000
      6 C6          -4.1656  -0.7814   3.1158 C.ar           1 <1>                0.0000
      7 C7          -3.6802  -0.7430   1.8222 C.ar           1 <1>                0.0000
      8 C8          -2.3211  -0.6322   1.5965 C.ar           1 <1>                0.0000
      9 C9          -1.7922  -0.5899   0.1860 C.3            1 <1>                0.0000
     10 N10         -2.7818   0.0449  -0.7252 N.3            1 <1>                0.0000
     11 O11         -1.9347   0.5529  -1.8270 O.3            1 <1>                0.0000
     12 C12         -0.7359   1.0257  -1.1854 C.3            1 <1>                0.0000
     13 N13         -0.6138   0.3046   0.0976 N.4            1 <1>                0.0000
     14 H14         -0.6179   0.9598   0.8649 H              1 <1>                0.0000
     15 H15          0.2363  -0.2388   0.1099 H              1 <1>                0.0000
     16 C16          0.4785   0.7284  -2.0674 C.3            1 <1>                0.0000
     17 C17          0.2591   1.3298  -3.4570 C.3            1 <1>                0.0000
     18 C18          1.3974   0.8998  -4.3844 C.3            1 <1>                0.0000
     19 C19          1.0343   0.0409  -5.5973 C.3            1 <1>                0.0000
     20 C20          1.4318   1.5059  -5.7888 C.3            1 <1>                0.0000
     21 C21          1.7294   1.3438  -1.4370 C.3            1 <1>                0.0000
     22 N22          1.4952   2.7705  -1.1766 N.4            1 <1>                0.0000
     23 H23          2.3476   3.1960  -0.8441 H              1 <1>                0.0000
     24 H24          1.2030   3.2244  -2.0290 H              1 <1>                0.0000
     25 H25          0.7743   2.8709  -0.4778 H              1 <1>                0.0000
     26 C26          2.0365   0.6403  -0.1402 C.2            1 <1>                0.0000
     27 O27          1.7452   1.1607   0.9158 O.2            1 <1>                0.0000
     28 N28          2.6348  -0.5673  -0.1539 N.am           1 <1>                0.0000
     29 C29          3.1416  -1.2615  -1.3517 C.3            1 <1>                0.0000
     30 C30          4.2330  -2.2239  -0.8202 C.3            1 <1>                0.0000
     31 C31          3.6166  -2.6792   0.5289 C.3            1 <1>                0.0000
     32 F32          4.6190  -3.0582   1.4282 F              1 <1>                0.0000
     33 C33          2.8958  -1.4077   1.0238 C.3            1 <1>                0.0000
     34 C34         -1.4458  -0.5597   2.6667 C.ar           1 <1>                0.0000
     35 F35         -0.1172  -0.4513   2.4473 F              1 <1>                0.0000
     36 C36         -1.9338  -0.5931   3.9623 C.ar           1 <1>                0.0000
     37 H37         -3.2915   1.5400   6.1860 H              1 <1>                0.0000
     38 H38         -4.9504   1.3958   5.5571 H              1 <1>                0.0000
     39 H39         -4.6138   1.0426   7.2688 H              1 <1>                0.0000
     40 H40         -5.2277  -0.8680   3.2912 H              1 <1>                0.0000
     41 H41         -4.3631  -0.8000   0.9875 H              1 <1>                0.0000
     42 H42         -1.5390  -1.5928  -0.1577 H              1 <1>                0.0000
     43 H43         -3.4479  -0.6329  -1.0642 H              1 <1>                0.0000
     44 H44         -0.8111   2.0976  -1.0028 H              1 <1>                0.0000
     45 H45          0.6088  -0.3502  -2.1547 H              1 <1>                0.0000
     46 H46         -0.6905   0.9773  -3.8597 H              1 <1>                0.0000
     47 H47          0.2413   2.4172  -3.3836 H              1 <1>                0.0000
     48 H48          2.3527   0.7047  -3.8969 H              1 <1>                0.0000
     49 H49          1.7507  -0.7197  -5.9081 H              1 <1>                0.0000
     50 H50         -0.0156  -0.2178  -5.7346 H              1 <1>                0.0000
     51 H51          0.6433   2.2110  -6.0521 H              1 <1>                0.0000
     52 H52          2.4096   1.7092  -6.2255 H              1 <1>                0.0000
     53 H53          2.5723   1.2326  -2.1192 H              1 <1>                0.0000
     54 H54          2.3408  -1.8241  -1.8315 H              1 <1>                0.0000
     55 H55          3.5747  -0.5456  -2.0503 H              1 <1>                0.0000
     56 H56          4.3688  -3.0704  -1.4932 H              1 <1>                0.0000
     57 H57          5.1744  -1.6977  -0.6618 H              1 <1>                0.0000
     58 H58          2.9105  -3.4951   0.3744 H              1 <1>                0.0000
     59 H59          3.5293  -0.8746   1.7327 H              1 <1>                0.0000
     60 H60          1.9517  -1.6773   1.4972 H              1 <1>                0.0000
     61 H61         -1.2520  -0.5362   4.7979 H              1 <1>                0.0000
@<TRIPOS>BOND
    1    1    2 1     
    2    1   37 1     
    3    1   38 1     
    4    1   39 1     
    5    2    3 2     
    6    2    4 2     
    7    2    5 1     
    8    5   36 ar    
    9    5    6 ar    
   10    6    7 ar    
   11    6   40 1     
   12    7    8 ar    
   13    7   41 1     
   14    8    9 1     
   15    8   34 ar    
   16    9   13 1     
   17    9   10 1     
   18    9   42 1     
   19   10   11 1     
   20   10   43 1     
   21   11   12 1     
   22   12   13 1     
   23   12   16 1     
   24   12   44 1     
   25   13   14 1     
   26   13   15 1     
   27   16   17 1     
   28   16   21 1     
   29   16   45 1     
   30   17   18 1     
   31   17   46 1     
   32   17   47 1     
   33   18   20 1     
   34   18   19 1     
   35   18   48 1     
   36   19   20 1     
   37   19   49 1     
   38   19   50 1     
   39   20   51 1     
   40   20   52 1     
   41   21   22 1     
   42   21   26 1     
   43   21   53 1     
   44   22   23 1     
   45   22   24 1     
   46   22   25 1     
   47   26   27 2     
   48   26   28 am    
   49   28   33 1     
   50   28   29 1     
   51   29   30 1     
   52   29   54 1     
   53   29   55 1     
   54   30   31 1     
   55   30   56 1     
   56   30   57 1     
   57   31   32 1     
   58   31   33 1     
   59   31   58 1     
   60   33   59 1     
   61   33   60 1     
   62   34   35 1     
   63   34   36 ar    
   64   36   61 1     
@<TRIPOS>SUBSTRUCTURE
      1 ****           1
@<TRIPOS>SET
DONOR_HYDROGENS      STATIC     ATOMS    <user>   **** ""
6 43 14 15 23 24 25
ATOM$RED        STATIC     ATOMS    COLORGROUP SYSTEM
6 43 14 15 23 24 25
