#       Name:                320
#       Creating user name   gbret
#       Creation time:       Thu Sep  8 22:14:49 2016


#       File generated by GOLD software.
#

@<TRIPOS>MOLECULE
320
    47    50     1
SMALL
NO_CHARGES


@<TRIPOS>ATOM
      1 F1           2.9878   2.8964  -8.8375 F              1 <1>                0.0000
      2 C2           2.4265   1.9649  -8.0359 C.ar           1 <1>                0.0000
      3 C3           3.2098   0.9702  -7.4756 C.ar           1 <1>                0.0000
      4 C4           2.6346   0.0178  -6.6558 C.ar           1 <1>                0.0000
      5 C5           1.2775   0.0581  -6.3952 C.ar           1 <1>                0.0000
      6 C6           0.6515  -0.9807  -5.5007 C.3            1 <1>                0.0000
      7 C7           0.6844  -0.4998  -4.0729 C.2            1 <1>                0.0000
      8 O8           1.1683   0.5798  -3.8078 O.2            1 <1>                0.0000
      9 N9           0.1758  -1.2698  -3.0906 N.am           1 <1>                0.0000
     10 C10          0.2052  -0.8397  -1.8136 C.2            1 <1>                0.0000
     11 O11          0.6903   0.2426  -1.5479 O.2            1 <1>                0.0000
     12 N12         -0.3034  -1.6096  -0.8313 N.am           1 <1>                0.0000
     13 C13         -0.1994  -1.2003   0.5046 C.ar           1 <1>                0.0000
     14 C14         -0.0050  -2.1421   1.5062 C.ar           1 <1>                0.0000
     15 C15          0.0977  -1.7391   2.8233 C.ar           1 <1>                0.0000
     16 C16          0.0068  -0.3936   3.1466 C.ar           1 <1>                0.0000
     17 O17          0.1075   0.0022   4.4439 O.3            1 <1>                0.0000
     18 C18         -1.0374   0.1391   5.1588 C.ar           1 <1>                0.0000
     19 C19         -2.2803  -0.0152   4.5572 C.ar           1 <1>                0.0000
     20 C20         -3.4254   0.1323   5.3200 C.ar           1 <1>                0.0000
     21 N21         -3.3680   0.4158   6.6049 N.ar           1 <1>                0.0000
     22 C22         -2.2103   0.5750   7.2356 C.ar           1 <1>                0.0000
     23 N23         -1.8822   0.8674   8.5374 N.pl3          1 <1>                0.0000
     24 H24         -2.5209   1.0132   9.2527 H              1 <1>                0.0000
     25 C25         -0.5204   0.9224   8.6766 C.2            1 <1>                0.0000
     26 C26          0.0688   0.6732   7.4966 C.2            1 <1>                0.0000
     27 C27         -1.0031   0.4349   6.5290 C.ar           1 <1>                0.0000
     28 C28         -0.1868   0.5501   2.1455 C.ar           1 <1>                0.0000
     29 F29         -0.2746   1.8609   2.4603 F              1 <1>                0.0000
     30 C30         -0.2848   0.1475   0.8264 C.ar           1 <1>                0.0000
     31 C31          0.4944   1.0508  -6.9541 C.ar           1 <1>                0.0000
     32 C32          1.0684   2.0076  -7.7695 C.ar           1 <1>                0.0000
     33 H33          4.2700   0.9383  -7.6794 H              1 <1>                0.0000
     34 H34          3.2453  -0.7584  -6.2190 H              1 <1>                0.0000
     35 H35         -0.3821  -1.1465  -5.8045 H              1 <1>                0.0000
     36 H36          1.2085  -1.9140  -5.5826 H              1 <1>                0.0000
     37 H37         -0.2114  -2.1335  -3.3026 H              1 <1>                0.0000
     38 H38         -0.7415  -2.4472  -1.0492 H              1 <1>                0.0000
     39 H39          0.0656  -3.1902   1.2554 H              1 <1>                0.0000
     40 H40          0.2485  -2.4723   3.6018 H              1 <1>                0.0000
     41 H41         -2.3520  -0.2474   3.5049 H              1 <1>                0.0000
     42 H42         -4.3902   0.0122   4.8499 H              1 <1>                0.0000
     43 H43          0.0011   1.1350   9.5981 H              1 <1>                0.0000
     44 H44          1.1305   0.6489   7.2999 H              1 <1>                0.0000
     45 H45         -0.4353   0.8804   0.0476 H              1 <1>                0.0000
     46 H46         -0.5657   1.0811  -6.7500 H              1 <1>                0.0000
     47 H47          0.4564   2.7830  -8.2060 H              1 <1>                0.0000
@<TRIPOS>BOND
    1    1    2 1     
    2    2   32 ar    
    3    2    3 ar    
    4    3    4 ar    
    5    3   33 1     
    6    4    5 ar    
    7    4   34 1     
    8    5    6 1     
    9    5   31 ar    
   10    6    7 1     
   11    6   35 1     
   12    6   36 1     
   13    7    8 2     
   14    7    9 1     
   15    9   10 1     
   16    9   37 1     
   17   10   11 2     
   18   10   12 1     
   19   12   13 1     
   20   12   38 1     
   21   13   30 ar    
   22   13   14 ar    
   23   14   15 ar    
   24   14   39 1     
   25   15   16 ar    
   26   15   40 1     
   27   16   17 1     
   28   16   28 ar    
   29   17   18 1     
   30   18   27 ar    
   31   18   19 ar    
   32   19   20 ar    
   33   19   41 1     
   34   20   21 ar    
   35   20   42 1     
   36   21   22 ar    
   37   22   27 ar    
   38   22   23 1     
   39   23   24 1     
   40   23   25 1     
   41   25   26 2     
   42   25   43 1     
   43   26   27 1     
   44   26   44 1     
   45   28   29 1     
   46   28   30 ar    
   47   30   45 1     
   48   31   32 ar    
   49   31   46 1     
   50   32   47 1     
@<TRIPOS>SUBSTRUCTURE
      1 ****           1
@<TRIPOS>SET
DONOR_HYDROGENS      STATIC     ATOMS    <user>   **** ""
3 37 38 24
ATOM$RED        STATIC     ATOMS    COLORGROUP SYSTEM
3 37 38 24
