#       Name:                32U
#       Creating user name   gbret
#       Creation time:       Thu Sep  8 22:16:43 2016


#       File generated by GOLD software.
#

@<TRIPOS>MOLECULE
32U
    58    60     1
SMALL
NO_CHARGES


@<TRIPOS>ATOM
      1 N1           7.6235   4.4818   1.7286 N.pl3          1 <1>                0.0000
      2 C2           7.6416   3.1505   1.7213 C.2            1 <1>                0.0000
      3 N3           8.8035   2.5006   1.7067 N.pl3          1 <1>                0.0000
      4 H4           9.6369   2.9970   1.7014 H              1 <1>                0.0000
      5 H5           8.8167   1.5307   1.7014 H              1 <1>                0.0000
      6 C6           6.3703   2.3933   1.7294 C.ar           1 <1>                0.0000
      7 C7           5.2381   2.9319   2.3414 C.ar           1 <1>                0.0000
      8 C8           4.0556   2.2210   2.3451 C.ar           1 <1>                0.0000
      9 C9           3.9911   0.9767   1.7437 C.ar           1 <1>                0.0000
     10 C10          2.6963   0.2058   1.7514 C.3            1 <1>                0.0000
     11 N11          1.9151   0.5512   0.5612 N.am           1 <1>                0.0000
     12 C12          0.7121  -0.0206   0.3553 C.2            1 <1>                0.0000
     13 O13          0.2763  -0.8210   1.1555 O.2            1 <1>                0.0000
     14 C14         -0.0914   0.3347  -0.8690 C.3            1 <1>                0.0000
     15 C15          0.6824  -0.0719  -2.1409 C.3            1 <1>                0.0000
     16 C16          0.0628  -1.4485  -2.4993 C.3            1 <1>                0.0000
     17 C17         -1.4165  -1.2400  -2.0895 C.3            1 <1>                0.0000
     18 N18         -1.3574  -0.4128  -0.8706 N.am           1 <1>                0.0000
     19 C19         -2.3065  -0.3523   0.0844 C.2            1 <1>                0.0000
     20 O20         -2.1510   0.3660   1.0492 O.2            1 <1>                0.0000
     21 C21         -3.5609  -1.1771  -0.0466 C.3            1 <1>                0.0000
     22 N22         -4.1913  -1.3225   1.2723 N.4            1 <1>                0.0000
     23 H23         -4.4248  -0.4107   1.6358 H              1 <1>                0.0000
     24 H24         -5.0312  -1.8748   1.1845 H              1 <1>                0.0000
     25 H25         -3.5510  -1.7819   1.9023 H              1 <1>                0.0000
     26 C26         -4.5319  -0.4805  -1.0020 C.3            1 <1>                0.0000
     27 C27         -5.7326  -1.3624  -1.2291 C.ar           1 <1>                0.0000
     28 C28         -5.7300  -2.2811  -2.2620 C.ar           1 <1>                0.0000
     29 C29         -6.8314  -3.0900  -2.4703 C.ar           1 <1>                0.0000
     30 C30         -7.9353  -2.9805  -1.6455 C.ar           1 <1>                0.0000
     31 C31         -7.9376  -2.0624  -0.6121 C.ar           1 <1>                0.0000
     32 C32         -6.8345  -1.2565  -0.4011 C.ar           1 <1>                0.0000
     33 C33          5.1102   0.4374   1.1348 C.ar           1 <1>                0.0000
     34 C34          6.2974   1.1404   1.1200 C.ar           1 <1>                0.0000
     35 H35          8.4569   4.9782   1.7233 H              1 <1>                0.0000
     36 H36          6.7770   4.9554   1.7352 H              1 <1>                0.0000
     37 H37          5.2872   3.9029   2.8115 H              1 <1>                0.0000
     38 H38          3.1785   2.6366   2.8188 H              1 <1>                0.0000
     39 H39          2.9098  -0.8631   1.7483 H              1 <1>                0.0000
     40 H40          2.1274   0.4600   2.6458 H              1 <1>                0.0000
     41 H41          2.2637   1.1914  -0.0788 H              1 <1>                0.0000
     42 H42         -0.2934   1.4058  -0.8818 H              1 <1>                0.0000
     43 H43          0.5129   0.6476  -2.9419 H              1 <1>                0.0000
     44 H44          1.7470  -0.1715  -1.9293 H              1 <1>                0.0000
     45 H45          0.1478  -1.6490  -3.5673 H              1 <1>                0.0000
     46 H46          0.5210  -2.2470  -1.9158 H              1 <1>                0.0000
     47 H47         -1.9582  -0.7165  -2.8773 H              1 <1>                0.0000
     48 H48         -1.8894  -2.1983  -1.8750 H              1 <1>                0.0000
     49 H49         -3.3087  -2.1622  -0.4393 H              1 <1>                0.0000
     50 H50         -4.8532   0.4659  -0.5672 H              1 <1>                0.0000
     51 H51         -4.0338  -0.2929  -1.9532 H              1 <1>                0.0000
     52 H52         -4.8675  -2.3667  -2.9064 H              1 <1>                0.0000
     53 H53         -6.8296  -3.8073  -3.2777 H              1 <1>                0.0000
     54 H54         -8.7961  -3.6120  -1.8087 H              1 <1>                0.0000
     55 H55         -8.8001  -1.9766   0.0322 H              1 <1>                0.0000
     56 H56         -6.8362  -0.5392   0.4063 H              1 <1>                0.0000
     57 H57          5.0535  -0.5342   0.6667 H              1 <1>                0.0000
     58 H58          7.1703   0.7185   0.6441 H              1 <1>                0.0000
@<TRIPOS>BOND
    1    1    2 2     
    2    1   35 1     
    3    1   36 1     
    4    2    3 1     
    5    2    6 1     
    6    3    4 1     
    7    3    5 1     
    8    6   34 ar    
    9    6    7 ar    
   10    7    8 ar    
   11    7   37 1     
   12    8    9 ar    
   13    8   38 1     
   14    9   10 1     
   15    9   33 ar    
   16   10   11 1     
   17   10   39 1     
   18   10   40 1     
   19   11   12 am    
   20   11   41 1     
   21   12   13 2     
   22   12   14 1     
   23   14   18 1     
   24   14   15 1     
   25   14   42 1     
   26   15   16 1     
   27   15   43 1     
   28   15   44 1     
   29   16   17 1     
   30   16   45 1     
   31   16   46 1     
   32   17   18 1     
   33   17   47 1     
   34   17   48 1     
   35   18   19 am    
   36   19   20 2     
   37   19   21 1     
   38   21   22 1     
   39   21   26 1     
   40   21   49 1     
   41   22   23 1     
   42   22   24 1     
   43   22   25 1     
   44   26   27 1     
   45   26   50 1     
   46   26   51 1     
   47   27   32 ar    
   48   27   28 ar    
   49   28   29 ar    
   50   28   52 1     
   51   29   30 ar    
   52   29   53 1     
   53   30   31 ar    
   54   30   54 1     
   55   31   32 ar    
   56   31   55 1     
   57   32   56 1     
   58   33   34 ar    
   59   33   57 1     
   60   34   58 1     
@<TRIPOS>SUBSTRUCTURE
      1 ****           1
@<TRIPOS>SET
DONOR_HYDROGENS      STATIC     ATOMS    <user>   **** ""
8 35 36 4 5 41 23 24 25
ATOM$RED        STATIC     ATOMS    COLORGROUP SYSTEM
8 35 36 4 5 41 23 24 25
