#       Name:                346
#       Creating user name   gbret
#       Creation time:       Thu Sep  8 22:19:59 2016


#       File generated by GOLD software.
#

@<TRIPOS>MOLECULE
346
    54    56     1
SMALL
NO_CHARGES


@<TRIPOS>ATOM
      1 C1          -0.3770   5.0229   3.2090 C.3            1 <1>                0.0000
      2 C2          -0.7131   3.5363   3.0749 C.3            1 <1>                0.0000
      3 O3           0.0074   2.9827   1.9719 O.3            1 <1>                0.0000
      4 C4          -0.1796   1.6613   1.7135 C.ar           1 <1>                0.0000
      5 C5          -1.0430   0.9157   2.5021 C.ar           1 <1>                0.0000
      6 C6          -1.2321  -0.4311   2.2370 C.ar           1 <1>                0.0000
      7 O7          -2.0783  -1.1641   3.0083 O.3            1 <1>                0.0000
      8 C8          -2.6829  -0.4999   4.1197 C.3            1 <1>                0.0000
      9 C9          -3.9026  -1.3037   4.6472 C.3            1 <1>                0.0000
     10 C10         -3.9169  -0.8735   6.1357 C.3            1 <1>                0.0000
     11 O11         -2.5338  -0.7518   6.5042 O.3            1 <1>                0.0000
     12 C12         -1.7377  -0.5000   5.3404 C.3            1 <1>                0.0000
     13 C13         -0.5563  -1.0316   1.1817 C.ar           1 <1>                0.0000
     14 F14         -0.7401  -2.3446   0.9219 F              1 <1>                0.0000
     15 C15          0.3040  -0.2855   0.3972 C.ar           1 <1>                0.0000
     16 C16          0.4888   1.0597   0.6576 C.ar           1 <1>                0.0000
     17 C17          1.0366  -0.9382  -0.7466 C.3            1 <1>                0.0000
     18 N18          1.3234   0.0626  -1.7774 N.pl3          1 <1>                0.0000
     19 C19          1.5617  -0.3376  -3.0882 C.ar           1 <1>                0.0000
     20 C20          1.5217  -1.6888  -3.4201 C.ar           1 <1>                0.0000
     21 C21          1.7567  -2.0876  -4.7164 C.ar           1 <1>                0.0000
     22 C22          2.0356  -1.1347  -5.6994 C.ar           1 <1>                0.0000
     23 C23          2.0751   0.2209  -5.3633 C.ar           1 <1>                0.0000
     24 C24          1.8341   0.6143  -4.0664 C.ar           1 <1>                0.0000
     25 C25          2.2886  -1.5596  -7.0909 C.2            1 <1>                0.0000
     26 N26          1.9707  -0.7521  -8.1025 N.pl3          1 <1>                0.0000
     27 N27          2.8348  -2.7504  -7.3352 N.pl3          1 <1>                0.0000
     28 H28          3.0662  -3.3381  -6.5991 H              1 <1>                0.0000
     29 H29          3.0009  -3.0295  -8.2493 H              1 <1>                0.0000
     30 C30          2.3298  -1.5268  -0.2443 C.2            1 <1>                0.0000
     31 O31          2.3123  -2.5048   0.4835 O.co2          1 <1>                0.0000
     32 O32          3.3934  -1.0249  -0.5657 O.co2          1 <1>                0.0000
     33 H33          0.6934   5.1396   3.3789 H              1 <1>                0.0000
     34 H34         -0.6583   5.5431   2.2934 H              1 <1>                0.0000
     35 H35         -0.9265   5.4452   4.0503 H              1 <1>                0.0000
     36 H36         -0.4317   3.0162   3.9905 H              1 <1>                0.0000
     37 H37         -1.7834   3.4197   2.9050 H              1 <1>                0.0000
     38 H38         -1.5670   1.3842   3.3220 H              1 <1>                0.0000
     39 H39         -2.9708   0.5168   3.8521 H              1 <1>                0.0000
     40 H40         -4.8202  -1.0018   4.1422 H              1 <1>                0.0000
     41 H41         -3.7377  -2.3768   4.5500 H              1 <1>                0.0000
     42 H42         -4.4240   0.0848   6.2477 H              1 <1>                0.0000
     43 H43         -4.4052  -1.6343   6.7447 H              1 <1>                0.0000
     44 H44         -0.9888  -1.2839   5.2280 H              1 <1>                0.0000
     45 H45         -1.2489   0.4701   5.4296 H              1 <1>                0.0000
     46 H46          1.1608   1.6407   0.0434 H              1 <1>                0.0000
     47 H47          0.4178  -1.7292  -1.1704 H              1 <1>                0.0000
     48 H48          1.3471   1.0042  -1.5459 H              1 <1>                0.0000
     49 H49          1.3064  -2.4249  -2.6597 H              1 <1>                0.0000
     50 H50          1.7258  -3.1362  -4.9733 H              1 <1>                0.0000
     51 H51          2.2908   0.9596  -6.1210 H              1 <1>                0.0000
     52 H52          1.8641   1.6621  -3.8061 H              1 <1>                0.0000
     53 H53          1.5731   0.1146  -7.9246 H              1 <1>                0.0000
     54 H54          2.1369  -1.0311  -9.0165 H              1 <1>                0.0000
@<TRIPOS>BOND
    1    1    2 1     
    2    1   33 1     
    3    1   34 1     
    4    1   35 1     
    5    2    3 1     
    6    2   36 1     
    7    2   37 1     
    8    3    4 1     
    9    4   16 ar    
   10    4    5 ar    
   11    5    6 ar    
   12    5   38 1     
   13    6    7 1     
   14    6   13 ar    
   15    7    8 1     
   16    8   12 1     
   17    8    9 1     
   18    8   39 1     
   19    9   10 1     
   20    9   40 1     
   21    9   41 1     
   22   10   11 1     
   23   10   42 1     
   24   10   43 1     
   25   11   12 1     
   26   12   44 1     
   27   12   45 1     
   28   13   14 1     
   29   13   15 ar    
   30   15   16 ar    
   31   15   17 1     
   32   16   46 1     
   33   17   18 1     
   34   17   30 1     
   35   17   47 1     
   36   18   19 1     
   37   18   48 1     
   38   19   24 ar    
   39   19   20 ar    
   40   20   21 ar    
   41   20   49 1     
   42   21   22 ar    
   43   21   50 1     
   44   22   23 ar    
   45   22   25 1     
   46   23   24 ar    
   47   23   51 1     
   48   24   52 1     
   49   25   26 2     
   50   25   27 1     
   51   26   53 1     
   52   26   54 1     
   53   27   28 1     
   54   27   29 1     
   55   30   31 ar    
   56   30   32 ar    
@<TRIPOS>SUBSTRUCTURE
      1 ****           1
@<TRIPOS>SET
DONOR_HYDROGENS      STATIC     ATOMS    <user>   **** ""
5 48 53 54 28 29
ATOM$RED        STATIC     ATOMS    COLORGROUP SYSTEM
5 48 53 54 28 29
