#       Name:                37F
#       Creating user name   gbret
#       Creation time:       Thu Sep  8 22:26:51 2016


#       File generated by GOLD software.
#

@<TRIPOS>MOLECULE
37F
    62    66     1
SMALL
NO_CHARGES


@<TRIPOS>ATOM
      1 C1          -2.5743   6.0450   1.7353 C.3            1 <1>                0.0000
      2 N2          -2.5651   4.6167   1.3919 N.4            1 <1>                0.0000
      3 H3          -3.4984   4.2437   1.4804 H              1 <1>                0.0000
      4 C4          -2.1001   4.4489   0.0088 C.3            1 <1>                0.0000
      5 C5          -2.1083   2.9627  -0.3556 C.3            1 <1>                0.0000
      6 N6          -1.2295   2.2302   0.5671 N.3            1 <1>                0.0000
      7 C7          -1.6681   2.4093   1.9584 C.3            1 <1>                0.0000
      8 C8          -1.6633   3.9001   2.3035 C.3            1 <1>                0.0000
      9 C9          -1.1691   0.8747   0.2315 C.ar           1 <1>                0.0000
     10 C10         -2.3277   0.1100   0.2224 C.ar           1 <1>                0.0000
     11 C11         -2.2716  -1.2283  -0.1080 C.ar           1 <1>                0.0000
     12 C12         -1.0505  -1.8167  -0.4343 C.ar           1 <1>                0.0000
     13 C13          0.1147  -1.0518  -0.4267 C.ar           1 <1>                0.0000
     14 C14          0.0553   0.2921  -0.1000 C.ar           1 <1>                0.0000
     15 N15          1.2244   1.0642  -0.0917 N.am           1 <1>                0.0000
     16 C16          2.4278   0.4639  -0.0032 C.2            1 <1>                0.0000
     17 O17          2.4998  -0.7490   0.0509 O.2            1 <1>                0.0000
     18 C18          3.6569   1.2775   0.0280 C.2            1 <1>                0.0000
     19 C19          3.5790   2.6515   0.1319 C.2            1 <1>                0.0000
     20 N20          4.6986   3.3981   0.1607 N.am           1 <1>                0.0000
     21 H21          4.6273   4.3627   0.2341 H              1 <1>                0.0000
     22 C22          5.9150   2.8277   0.0898 C.2            1 <1>                0.0000
     23 O23          6.9139   3.5268   0.1188 O.2            1 <1>                0.0000
     24 C24          6.0436   1.4300  -0.0171 C.2            1 <1>                0.0000
     25 C25          4.9268   0.6549  -0.0426 C.2            1 <1>                0.0000
     26 C26          5.0384  -0.8437  -0.1565 C.3            1 <1>                0.0000
     27 F27          6.3880  -1.2077  -0.2148 F              1 <1>                0.0000
     28 F28          4.4419  -1.4418   0.9587 F              1 <1>                0.0000
     29 F29          4.3890  -1.2727  -1.3190 F              1 <1>                0.0000
     30 C30         -0.9913  -3.2556  -0.7889 C.ar           1 <1>                0.0000
     31 C31          0.2371  -3.8543  -1.1128 C.ar           1 <1>                0.0000
     32 N32          0.3191  -5.1214  -1.4294 N.ar           1 <1>                0.0000
     33 C33         -0.7615  -5.9090  -1.4604 C.ar           1 <1>                0.0000
     34 C34         -0.6534  -7.2682  -1.8024 C.ar           1 <1>                0.0000
     35 C35         -1.7670  -8.0503  -1.8269 C.ar           1 <1>                0.0000
     36 C36         -3.0209  -7.5267  -1.5179 C.ar           1 <1>                0.0000
     37 C37         -3.1661  -6.2155  -1.1819 C.ar           1 <1>                0.0000
     38 C38         -2.0378  -5.3786  -1.1460 C.ar           1 <1>                0.0000
     39 C39         -2.1479  -4.0211  -0.7975 C.ar           1 <1>                0.0000
     40 H40         -1.5661   6.4481   1.6398 H              1 <1>                0.0000
     41 H41         -3.2438   6.5768   1.0593 H              1 <1>                0.0000
     42 H42         -2.9198   6.1698   2.7615 H              1 <1>                0.0000
     43 H43         -2.7624   4.9919  -0.6655 H              1 <1>                0.0000
     44 H44         -1.0870   4.8402  -0.0840 H              1 <1>                0.0000
     45 H45         -3.1236   2.5743  -0.2761 H              1 <1>                0.0000
     46 H46         -1.7492   2.8366  -1.3770 H              1 <1>                0.0000
     47 H47         -2.6762   2.0118   2.0760 H              1 <1>                0.0000
     48 H48         -0.9878   1.8795   2.6252 H              1 <1>                0.0000
     49 H49         -0.6523   4.2940   2.1989 H              1 <1>                0.0000
     50 H50         -2.0019   4.0364   3.3305 H              1 <1>                0.0000
     51 H51         -3.2748   0.5636   0.4749 H              1 <1>                0.0000
     52 H52         -3.1744  -1.8209  -0.1135 H              1 <1>                0.0000
     53 H53          1.0615  -1.5058  -0.6792 H              1 <1>                0.0000
     54 H54          1.1676   2.0308  -0.1497 H              1 <1>                0.0000
     55 H55          2.6130   3.1309   0.1902 H              1 <1>                0.0000
     56 H56          7.0221   0.9765  -0.0741 H              1 <1>                0.0000
     57 H57          1.1353  -3.2548  -1.1006 H              1 <1>                0.0000
     58 H58          0.3105  -7.6905  -2.0454 H              1 <1>                0.0000
     59 H59         -1.6775  -9.0938  -2.0904 H              1 <1>                0.0000
     60 H60         -3.8885  -8.1692  -1.5456 H              1 <1>                0.0000
     61 H61         -4.1429  -5.8206  -0.9447 H              1 <1>                0.0000
     62 H62         -3.1046  -3.5865  -0.5481 H              1 <1>                0.0000
@<TRIPOS>BOND
    1    1    2 1     
    2    1   40 1     
    3    1   41 1     
    4    1   42 1     
    5    2    3 1     
    6    2    8 1     
    7    2    4 1     
    8    4    5 1     
    9    4   43 1     
   10    4   44 1     
   11    5    6 1     
   12    5   45 1     
   13    5   46 1     
   14    6    7 1     
   15    6    9 1     
   16    7    8 1     
   17    7   47 1     
   18    7   48 1     
   19    8   49 1     
   20    8   50 1     
   21    9   14 ar    
   22    9   10 ar    
   23   10   11 ar    
   24   10   51 1     
   25   11   12 ar    
   26   11   52 1     
   27   12   13 ar    
   28   12   30 1     
   29   13   14 ar    
   30   13   53 1     
   31   14   15 1     
   32   15   16 am    
   33   15   54 1     
   34   16   17 2     
   35   16   18 1     
   36   18   25 1     
   37   18   19 2     
   38   19   20 1     
   39   19   55 1     
   40   20   21 1     
   41   20   22 am    
   42   22   23 2     
   43   22   24 1     
   44   24   25 2     
   45   24   56 1     
   46   25   26 1     
   47   26   27 1     
   48   26   28 1     
   49   26   29 1     
   50   30   39 ar    
   51   30   31 ar    
   52   31   32 ar    
   53   31   57 1     
   54   32   33 ar    
   55   33   38 ar    
   56   33   34 ar    
   57   34   35 ar    
   58   34   58 1     
   59   35   36 ar    
   60   35   59 1     
   61   36   37 ar    
   62   36   60 1     
   63   37   38 ar    
   64   37   61 1     
   65   38   39 ar    
   66   39   62 1     
@<TRIPOS>SUBSTRUCTURE
      1 ****           1
@<TRIPOS>SET
DONOR_HYDROGENS      STATIC     ATOMS    <user>   **** ""
3 3 54 21
ATOM$RED        STATIC     ATOMS    COLORGROUP SYSTEM
3 3 54 21
