#       Name:                37G
#       Creating user name   gbret
#       Creation time:       Thu Sep  8 22:26:56 2016


#       File generated by GOLD software.
#

@<TRIPOS>MOLECULE
37G
    57    61     1
SMALL
NO_CHARGES


@<TRIPOS>ATOM
      1 C1           1.4000   2.4081   5.0824 C.3            1 <1>                0.0000
      2 C2           1.6082   0.9377   4.7146 C.3            1 <1>                0.0000
      3 C3           2.6445   0.3186   5.6547 C.3            1 <1>                0.0000
      4 C4           0.3028   0.1967   4.8481 C.2            1 <1>                0.0000
      5 O5          -0.4349   0.0690   5.9603 O.3            1 <1>                0.0000
      6 N6          -1.4349  -0.5818   5.7644 N.2            1 <1>                0.0000
      7 C7          -1.5119  -0.9772   4.5178 C.2            1 <1>                0.0000
      8 C8          -0.3548  -0.4633   3.8681 C.2            1 <1>                0.0000
      9 C9           0.0487  -0.6249   2.4251 C.3            1 <1>                0.0000
     10 O10         -0.3801   0.5166   1.6800 O.3            1 <1>                0.0000
     11 C11         -0.0930   0.5298   0.3520 C.ar           1 <1>                0.0000
     12 C12          0.5830  -0.5387  -0.2213 C.ar           1 <1>                0.0000
     13 C13          0.8758  -0.5283  -1.5689 C.ar           1 <1>                0.0000
     14 C14          0.4920   0.5565  -2.3556 C.ar           1 <1>                0.0000
     15 C15         -0.1870   1.6278  -1.7772 C.ar           1 <1>                0.0000
     16 C16         -0.4812   1.6093  -0.4300 C.ar           1 <1>                0.0000
     17 C17          0.8058   0.5712  -3.8052 C.ar           1 <1>                0.0000
     18 C18          1.4824  -0.5084  -4.3811 C.ar           1 <1>                0.0000
     19 C19          1.7763  -0.5053  -5.7145 C.ar           1 <1>                0.0000
     20 C20          1.4009   0.5774  -6.5069 C.ar           1 <1>                0.0000
     21 C21          1.5539   0.9001  -7.9383 C.2            1 <1>                0.0000
     22 C22          0.9719   2.1234  -8.1219 C.2            1 <1>                0.0000
     23 N23          0.4818   2.5772  -6.9522 N.pl3          1 <1>                0.0000
     24 H24          0.0243   3.4247  -6.8366 H              1 <1>                0.0000
     25 C25          0.7203   1.6682  -5.9411 C.ar           1 <1>                0.0000
     26 C26          0.4208   1.6552  -4.5847 C.ar           1 <1>                0.0000
     27 C27          2.2011   0.0742  -8.9596 C.2            1 <1>                0.0000
     28 O28          2.2582   0.4663 -10.1182 O.co2          1 <1>                0.0000
     29 O29          2.6851  -1.0085  -8.6551 O.co2          1 <1>                0.0000
     30 C30         -2.5906  -1.7916   3.9056 C.ar           1 <1>                0.0000
     31 C31         -2.2899  -3.0131   3.3040 C.ar           1 <1>                0.0000
     32 Cl32        -0.6515  -3.5858   3.2698 Cl             1 <1>                0.0000
     33 C33         -3.2986  -3.7668   2.7356 C.ar           1 <1>                0.0000
     34 C34         -4.6044  -3.3118   2.7621 C.ar           1 <1>                0.0000
     35 C35         -4.9090  -2.1012   3.3573 C.ar           1 <1>                0.0000
     36 C36         -3.9100  -1.3413   3.9345 C.ar           1 <1>                0.0000
     37 Cl37        -4.2942   0.1781   4.6812 Cl             1 <1>                0.0000
     38 H38          2.3442   2.9441   4.9858 H              1 <1>                0.0000
     39 H39          0.6617   2.8492   4.4126 H              1 <1>                0.0000
     40 H40          1.0457   2.4788   6.1108 H              1 <1>                0.0000
     41 H41          1.9625   0.8670   3.6862 H              1 <1>                0.0000
     42 H42          2.7929  -0.7290   5.3926 H              1 <1>                0.0000
     43 H43          3.5887   0.8545   5.5581 H              1 <1>                0.0000
     44 H44          2.2902   0.3892   6.6830 H              1 <1>                0.0000
     45 H45          1.1328  -0.7157   2.3590 H              1 <1>                0.0000
     46 H46         -0.4167  -1.5216   2.0160 H              1 <1>                0.0000
     47 H47          0.8801  -1.3789   0.3888 H              1 <1>                0.0000
     48 H48          1.4023  -1.3595  -2.0141 H              1 <1>                0.0000
     49 H49         -0.4857   2.4696  -2.3842 H              1 <1>                0.0000
     50 H50         -1.0076   2.4388   0.0187 H              1 <1>                0.0000
     51 H51          1.7741  -1.3485  -3.7683 H              1 <1>                0.0000
     52 H52          2.2997  -1.3413  -6.1544 H              1 <1>                0.0000
     53 H53          0.9144   2.6481  -9.0642 H              1 <1>                0.0000
     54 H54         -0.1067   2.4848  -4.1377 H              1 <1>                0.0000
     55 H55         -3.0670  -4.7130   2.2694 H              1 <1>                0.0000
     56 H56         -5.3895  -3.9042   2.3159 H              1 <1>                0.0000
     57 H57         -5.9306  -1.7512   3.3749 H              1 <1>                0.0000
@<TRIPOS>BOND
    1    1    2 1     
    2    1   38 1     
    3    1   39 1     
    4    1   40 1     
    5    2    3 1     
    6    2    4 1     
    7    2   41 1     
    8    3   42 1     
    9    3   43 1     
   10    3   44 1     
   11    4    8 2     
   12    4    5 1     
   13    5    6 1     
   14    6    7 2     
   15    7    8 1     
   16    7   30 1     
   17    8    9 1     
   18    9   10 1     
   19    9   45 1     
   20    9   46 1     
   21   10   11 1     
   22   11   16 ar    
   23   11   12 ar    
   24   12   13 ar    
   25   12   47 1     
   26   13   14 ar    
   27   13   48 1     
   28   14   15 ar    
   29   14   17 1     
   30   15   16 ar    
   31   15   49 1     
   32   16   50 1     
   33   17   26 ar    
   34   17   18 ar    
   35   18   19 ar    
   36   18   51 1     
   37   19   20 ar    
   38   19   52 1     
   39   20   25 ar    
   40   20   21 1     
   41   21   22 2     
   42   21   27 1     
   43   22   23 1     
   44   22   53 1     
   45   23   24 1     
   46   23   25 1     
   47   25   26 ar    
   48   26   54 1     
   49   27   28 ar    
   50   27   29 ar    
   51   30   36 ar    
   52   30   31 ar    
   53   31   32 1     
   54   31   33 ar    
   55   33   34 ar    
   56   33   55 1     
   57   34   35 ar    
   58   34   56 1     
   59   35   36 ar    
   60   35   57 1     
   61   36   37 1     
@<TRIPOS>SUBSTRUCTURE
      1 ****           1
@<TRIPOS>SET
DONOR_HYDROGENS      STATIC     ATOMS    <user>   **** ""
1 24
ATOM$RED        STATIC     ATOMS    COLORGROUP SYSTEM
1 24
