#       Name:                385
#       Creating user name   gbret
#       Creation time:       Thu Sep  8 22:28:44 2016


#       File generated by GOLD software.
#

@<TRIPOS>MOLECULE
385
    89    94     1
SMALL
NO_CHARGES


@<TRIPOS>ATOM
      1 C1           1.1085   5.1095  -4.5418 C.3            1 <1>                0.0000
      2 C2           1.0383   3.6275  -4.1683 C.3            1 <1>                0.0000
      3 C3           1.7085   3.4116  -2.8099 C.3            1 <1>                0.0000
      4 C4          -0.4257   3.1901  -4.0899 C.3            1 <1>                0.0000
      5 N5          -0.4920   1.7437  -3.8665 N.pl3          1 <1>                0.0000
      6 C6          -0.4334   1.2096  -2.5037 C.3            1 <1>                0.0000
      7 C7          -1.8328   1.2341  -1.8857 C.3            1 <1>                0.0000
      8 O8          -2.6868   0.3421  -2.6048 O.3            1 <1>                0.0000
      9 C9          -1.7519   0.7940  -0.4225 C.3            1 <1>                0.0000
     10 C10         -3.1570   0.7748   0.1826 C.3            1 <1>                0.0000
     11 C11         -3.0661   0.4611   1.6538 C.ar           1 <1>                0.0000
     12 C12         -3.1078  -0.8525   2.0832 C.ar           1 <1>                0.0000
     13 C13         -3.0246  -1.1428   3.4313 C.ar           1 <1>                0.0000
     14 C14         -2.8987  -0.1149   4.3544 C.ar           1 <1>                0.0000
     15 O15         -2.8162  -0.3978   5.6811 O.3            1 <1>                0.0000
     16 C16         -2.6880   0.7104   6.5741 C.3            1 <1>                0.0000
     17 C17         -2.6112   0.2065   7.9923 C.2            1 <1>                0.0000
     18 C18         -2.6558  -1.0929   8.3012 C.2            1 <1>                0.0000
     19 S19         -2.5362  -1.2382  10.0531 S.3            1 <1>                0.0000
     20 C20         -2.4381   0.4628  10.1959 C.2            1 <1>                0.0000
     21 C21         -2.3051   1.2130  11.4962 C.3            1 <1>                0.0000
     22 N22         -2.4889   1.0109   9.0289 N.2            1 <1>                0.0000
     23 C23         -2.8566   1.2023   3.9210 C.ar           1 <1>                0.0000
     24 C24         -2.9353   1.4870   2.5715 C.ar           1 <1>                0.0000
     25 N25         -1.1697  -0.5483  -0.3478 N.am           1 <1>                0.0000
     26 C26         -0.0663  -0.7637   0.3956 C.2            1 <1>                0.0000
     27 O27          0.3928   0.1326   1.0755 O.2            1 <1>                0.0000
     28 O28          0.5272  -1.9722   0.3849 O.3            1 <1>                0.0000
     29 C29          1.7115  -2.1322   1.2096 C.3            1 <1>                0.0000
     30 C30          1.3376  -2.7338   2.5819 C.3            1 <1>                0.0000
     31 O31          1.5038  -4.1567   2.4174 O.3            1 <1>                0.0000
     32 C32          2.6994  -4.3298   1.6263 C.3            1 <1>                0.0000
     33 O33          2.5823  -5.5563   0.8935 O.3            1 <1>                0.0000
     34 C34          2.5067  -5.2875  -0.5147 C.3            1 <1>                0.0000
     35 C35          1.9660  -3.8396  -0.6226 C.3            1 <1>                0.0000
     36 C36          2.6642  -3.1726   0.5896 C.3            1 <1>                0.0000
     37 S37         -0.6332   0.7126  -5.1546 S.o2           1 <1>                0.0000
     38 O38         -1.2136  -0.4824  -4.6503 O.2            1 <1>                0.0000
     39 O39         -1.2061   1.4685  -6.2128 O.2            1 <1>                0.0000
     40 C40          0.9993   0.2942  -5.6692 C.ar           1 <1>                0.0000
     41 C41          1.6441   1.0689  -6.6154 C.ar           1 <1>                0.0000
     42 C42          2.9249   0.7448  -7.0223 C.ar           1 <1>                0.0000
     43 C43          3.5656  -0.3585  -6.4821 C.ar           1 <1>                0.0000
     44 O44          4.8043  -0.8859  -6.7071 O.3            1 <1>                0.0000
     45 C45          5.0619  -1.7537  -5.5873 C.3            1 <1>                0.0000
     46 O46          3.7480  -2.1548  -5.1562 O.3            1 <1>                0.0000
     47 C47          2.9162  -1.1386  -5.5286 C.ar           1 <1>                0.0000
     48 C48          1.6347  -0.8046  -5.1216 C.ar           1 <1>                0.0000
     49 H49          2.1516   5.4211  -4.5977 H              1 <1>                0.0000
     50 H50          0.6311   5.2633  -5.5096 H              1 <1>                0.0000
     51 H51          0.5930   5.6999  -3.7844 H              1 <1>                0.0000
     52 H52          1.5539   3.0371  -4.9257 H              1 <1>                0.0000
     53 H53          1.1148   3.8909  -2.0316 H              1 <1>                0.0000
     54 H54          1.7805   2.3433  -2.6060 H              1 <1>                0.0000
     55 H55          2.7078   3.8468  -2.8245 H              1 <1>                0.0000
     56 H56         -0.9160   3.7079  -3.2655 H              1 <1>                0.0000
     57 H57         -0.9292   3.4368  -5.0247 H              1 <1>                0.0000
     58 H58         -0.0661   0.1837  -2.5310 H              1 <1>                0.0000
     59 H59          0.2400   1.8206  -1.9026 H              1 <1>                0.0000
     60 H60         -2.2360   2.2453  -1.9392 H              1 <1>                0.0000
     61 H61         -2.4311  -0.5880  -2.5364 H              1 <1>                0.0000
     62 H62         -1.1265   1.4928   0.1330 H              1 <1>                0.0000
     63 H63         -3.6242   1.7503   0.0474 H              1 <1>                0.0000
     64 H64         -3.7566   0.0126  -0.3150 H              1 <1>                0.0000
     65 H65         -3.2058  -1.6524   1.3642 H              1 <1>                0.0000
     66 H66         -3.0580  -2.1690   3.7662 H              1 <1>                0.0000
     67 H67         -1.7808   1.2657   6.3361 H              1 <1>                0.0000
     68 H68         -3.5531   1.3649   6.4674 H              1 <1>                0.0000
     69 H69         -2.7487  -1.9097   7.6008 H              1 <1>                0.0000
     70 H70         -2.2821   0.5042  12.3239 H              1 <1>                0.0000
     71 H71         -1.3821   1.7927  11.4884 H              1 <1>                0.0000
     72 H72         -3.1550   1.8848  11.6166 H              1 <1>                0.0000
     73 H73         -2.7589   2.0043   4.6377 H              1 <1>                0.0000
     74 H74         -2.9023   2.5122   2.2335 H              1 <1>                0.0000
     75 H75         -1.5783  -1.2819  -0.8333 H              1 <1>                0.0000
     76 H76          2.2200  -1.1763   1.3353 H              1 <1>                0.0000
     77 H77          2.0085  -2.3603   3.3555 H              1 <1>                0.0000
     78 H78          0.3026  -2.4988   2.8300 H              1 <1>                0.0000
     79 H79          3.5993  -4.2964   2.2405 H              1 <1>                0.0000
     80 H80          3.4963  -5.3564  -0.9665 H              1 <1>                0.0000
     81 H81          1.8208  -5.9843  -0.9964 H              1 <1>                0.0000
     82 H82          2.2746  -3.3739  -1.5586 H              1 <1>                0.0000
     83 H83          0.8818  -3.8161  -0.5132 H              1 <1>                0.0000
     84 H84          3.6450  -2.7633   0.3476 H              1 <1>                0.0000
     85 H85          1.1460   1.9290  -7.0379 H              1 <1>                0.0000
     86 H86          3.4261   1.3516  -7.7619 H              1 <1>                0.0000
     87 H87          5.6436  -2.6207  -5.9005 H              1 <1>                0.0000
     88 H88          5.5768  -1.2122  -4.7937 H              1 <1>                0.0000
     89 H89          1.1305  -1.4050  -4.3788 H              1 <1>                0.0000
@<TRIPOS>BOND
    1    1    2 1     
    2    1   49 1     
    3    1   50 1     
    4    1   51 1     
    5    2    3 1     
    6    2    4 1     
    7    2   52 1     
    8    3   53 1     
    9    3   54 1     
   10    3   55 1     
   11    4    5 1     
   12    4   56 1     
   13    4   57 1     
   14    5    6 1     
   15    5   37 1     
   16    6    7 1     
   17    6   58 1     
   18    6   59 1     
   19    7    8 1     
   20    7    9 1     
   21    7   60 1     
   22    8   61 1     
   23    9   10 1     
   24    9   25 1     
   25    9   62 1     
   26   10   11 1     
   27   10   63 1     
   28   10   64 1     
   29   11   24 ar    
   30   11   12 ar    
   31   12   13 ar    
   32   12   65 1     
   33   13   14 ar    
   34   13   66 1     
   35   14   15 1     
   36   14   23 ar    
   37   15   16 1     
   38   16   17 1     
   39   16   67 1     
   40   16   68 1     
   41   17   22 1     
   42   17   18 2     
   43   18   19 1     
   44   18   69 1     
   45   19   20 1     
   46   20   21 1     
   47   20   22 2     
   48   21   70 1     
   49   21   71 1     
   50   21   72 1     
   51   23   24 ar    
   52   23   73 1     
   53   24   74 1     
   54   25   26 am    
   55   25   75 1     
   56   26   27 2     
   57   26   28 1     
   58   28   29 1     
   59   29   36 1     
   60   29   30 1     
   61   29   76 1     
   62   30   31 1     
   63   30   77 1     
   64   30   78 1     
   65   31   32 1     
   66   32   36 1     
   67   32   33 1     
   68   32   79 1     
   69   33   34 1     
   70   34   35 1     
   71   34   80 1     
   72   34   81 1     
   73   35   36 1     
   74   35   82 1     
   75   35   83 1     
   76   36   84 1     
   77   37   38 2     
   78   37   39 2     
   79   37   40 1     
   80   40   48 ar    
   81   40   41 ar    
   82   41   42 ar    
   83   41   85 1     
   84   42   43 ar    
   85   42   86 1     
   86   43   47 ar    
   87   43   44 1     
   88   44   45 1     
   89   45   46 1     
   90   45   87 1     
   91   45   88 1     
   92   46   47 1     
   93   47   48 ar    
   94   48   89 1     
@<TRIPOS>SUBSTRUCTURE
      1 ****           1
@<TRIPOS>SET
DONOR_HYDROGENS      STATIC     ATOMS    <user>   **** ""
2 61 75
ATOM$RED        STATIC     ATOMS    COLORGROUP SYSTEM
2 61 75
