#       Name:                38L
#       Creating user name   gbret
#       Creation time:       Thu Sep  8 22:29:49 2016


#       File generated by GOLD software.
#

@<TRIPOS>MOLECULE
38L
    14    14     1
SMALL
NO_CHARGES


@<TRIPOS>ATOM
      1 O1          -0.4363  -2.4792  -0.0084 O.co2          1 <1>                0.0000
      2 C2          -0.4548  -1.1203  -0.0009 C.ar           1 <1>                0.0000
      3 C3          -1.6654  -0.4424   0.0201 C.ar           1 <1>                0.0000
      4 C4          -1.6848   0.9392   0.0276 C.ar           1 <1>                0.0000
      5 C5          -0.4995   1.6492   0.0139 C.ar           1 <1>                0.0000
      6 C6           0.7138   0.9758  -0.0071 C.ar           1 <1>                0.0000
      7 O7           1.8792   1.6747  -0.0206 O.co2          1 <1>                0.0000
      8 C8           0.7359  -0.4103  -0.0085 C.ar           1 <1>                0.0000
      9 N9           2.0287  -1.1310  -0.0303 N.pl3          1 <1>                0.0000
     10 O10          2.5780  -1.4283   1.0153 O.2            1 <1>                0.0000
     11 O11          2.5431  -1.4268  -1.0940 O.2            1 <1>                0.0000
     12 H12         -2.5932  -0.9951   0.0301 H              1 <1>                0.0000
     13 H13         -2.6280   1.4651   0.0440 H              1 <1>                0.0000
     14 H14         -0.5172   2.7290   0.0191 H              1 <1>                0.0000
@<TRIPOS>BOND
    1    1    2 ar    
    2    2    8 ar    
    3    2    3 ar    
    4    3    4 ar    
    5    3   12 1     
    6    4    5 ar    
    7    4   13 1     
    8    5    6 ar    
    9    5   14 1     
   10    6    7 ar    
   11    6    8 ar    
   12    8    9 1     
   13    9   10 2     
   14    9   11 2     
@<TRIPOS>SUBSTRUCTURE
      1 ****           1
