#       Name:                3A2
#       Creating user name   gbret
#       Creation time:       Thu Sep  8 22:33:11 2016


#       File generated by GOLD software.
#

@<TRIPOS>MOLECULE
3A2
    86    88     1
SMALL
NO_CHARGES


@<TRIPOS>ATOM
      1 C1           9.2165   1.8390  -1.5768 C.3            1 <1>                0.0000
      2 C2           9.2025   0.3195  -1.7558 C.3            1 <1>                0.0000
      3 C3           7.7616  -0.1895  -1.6818 C.3            1 <1>                0.0000
      4 C4           7.7476  -1.7089  -1.8609 C.3            1 <1>                0.0000
      5 C5           6.3066  -2.2179  -1.7869 C.3            1 <1>                0.0000
      6 N6           5.5426  -1.6873  -2.9186 N.am           1 <1>                0.0000
      7 C7           4.2042  -1.5581  -2.8268 C.2            1 <1>                0.0000
      8 O8           3.6323  -1.8811  -1.8072 O.2            1 <1>                0.0000
      9 C9           3.4182  -1.0123  -3.9910 C.3            1 <1>                0.0000
     10 C10          3.5706  -1.9453  -5.2107 C.3            1 <1>                0.0000
     11 C11          2.2909  -2.8199  -5.1413 C.3            1 <1>                0.0000
     12 C12          1.2477  -1.8033  -4.6140 C.3            1 <1>                0.0000
     13 N13          1.9884  -0.9672  -3.6518 N.am           1 <1>                0.0000
     14 C14          1.4448  -0.2764  -2.6301 C.2            1 <1>                0.0000
     15 O15          2.1535   0.3809  -1.8976 O.2            1 <1>                0.0000
     16 C16         -0.0436  -0.3208  -2.3980 C.3            1 <1>                0.0000
     17 C17         -0.3965   0.5424  -1.1851 C.3            1 <1>                0.0000
     18 P18         -2.1969   0.4888  -0.9042 P.3            1 <1>                0.0000
     19 O19         -2.9248   1.1359  -2.1036 O.co2          1 <1>                0.0000
     20 O20         -2.6517  -0.9805  -0.7576 O.co2          1 <1>                0.0000
     21 C21         -2.6020   1.4051   0.6188 C.3            1 <1>                0.0000
     22 C22         -2.2668   2.8857   0.4276 C.3            1 <1>                0.0000
     23 C23         -2.4784   3.6204   1.7262 C.ar           1 <1>                0.0000
     24 C24         -3.6780   4.2628   1.9695 C.ar           1 <1>                0.0000
     25 C25         -3.8720   4.9367   3.1607 C.ar           1 <1>                0.0000
     26 C26         -2.8666   4.9679   4.1089 C.ar           1 <1>                0.0000
     27 C27         -1.6673   4.3247   3.8660 C.ar           1 <1>                0.0000
     28 C28         -1.4749   3.6471   2.6766 C.ar           1 <1>                0.0000
     29 N29         -4.0306   1.2614   0.9098 N.am           1 <1>                0.0000
     30 C30         -4.4373   0.4454   1.9024 C.2            1 <1>                0.0000
     31 O31         -3.6207  -0.1699   2.5546 O.2            1 <1>                0.0000
     32 C32         -5.9069   0.2976   2.2018 C.3            1 <1>                0.0000
     33 C33         -6.6351  -0.2945   0.9768 C.3            1 <1>                0.0000
     34 C34         -6.7180  -1.8056   1.3187 C.3            1 <1>                0.0000
     35 C35         -6.9272  -1.7663   2.8531 C.3            1 <1>                0.0000
     36 N36         -6.0979  -0.6397   3.3182 N.am           1 <1>                0.0000
     37 C37         -5.5973  -0.4935   4.5610 C.2            1 <1>                0.0000
     38 O38         -4.9244   0.4781   4.8333 O.2            1 <1>                0.0000
     39 C39         -5.8738  -1.5372   5.6123 C.3            1 <1>                0.0000
     40 N40         -5.2230  -1.1490   6.8708 N.4            1 <1>                0.0000
     41 H41         -5.4081  -1.8478   7.5747 H              1 <1>                0.0000
     42 H42         -4.2274  -1.0736   6.7253 H              1 <1>                0.0000
     43 H43         -5.5865  -0.2589   7.1768 H              1 <1>                0.0000
     44 C44          6.3026  -3.7240  -1.8400 C.2            1 <1>                0.0000
     45 O45          6.3682  -4.3705  -0.8084 O.co2          1 <1>                0.0000
     46 O46          6.2336  -4.2959  -2.9145 O.co2          1 <1>                0.0000
     47 H47         10.2431   2.2016  -1.6295 H              1 <1>                0.0000
     48 H48          8.6261   2.3033  -2.3667 H              1 <1>                0.0000
     49 H49          8.7903   2.0944  -0.6067 H              1 <1>                0.0000
     50 H50          9.6287   0.0640  -2.7260 H              1 <1>                0.0000
     51 H51          9.7929  -0.1448  -0.9659 H              1 <1>                0.0000
     52 H52          7.3353   0.0660  -0.7117 H              1 <1>                0.0000
     53 H53          7.1712   0.2749  -2.4717 H              1 <1>                0.0000
     54 H54          8.1738  -1.9644  -2.8310 H              1 <1>                0.0000
     55 H55          8.3380  -2.1733  -1.0710 H              1 <1>                0.0000
     56 H56          5.8515  -1.8860  -0.8537 H              1 <1>                0.0000
     57 H57          6.0000  -1.4289  -3.7341 H              1 <1>                0.0000
     58 H58          3.7717  -0.0118  -4.2402 H              1 <1>                0.0000
     59 H59          3.5946  -1.3697  -6.1360 H              1 <1>                0.0000
     60 H60          4.4646  -2.5617  -5.1155 H              1 <1>                0.0000
     61 H61          2.0141  -3.1865  -6.1297 H              1 <1>                0.0000
     62 H62          2.4196  -3.6459  -4.4418 H              1 <1>                0.0000
     63 H63          0.8660  -1.1925  -5.4322 H              1 <1>                0.0000
     64 H64          0.4303  -2.3232  -4.1143 H              1 <1>                0.0000
     65 H65         -0.5602   0.0612  -3.2785 H              1 <1>                0.0000
     66 H66         -0.3520  -1.3499  -2.2136 H              1 <1>                0.0000
     67 H67          0.1201   0.1605  -0.3046 H              1 <1>                0.0000
     68 H68         -0.0880   1.5715  -1.3694 H              1 <1>                0.0000
     69 H69         -2.0200   1.0051   1.4491 H              1 <1>                0.0000
     70 H70         -1.2263   2.9857   0.1188 H              1 <1>                0.0000
     71 H71         -2.9157   3.3090  -0.3392 H              1 <1>                0.0000
     72 H72         -4.4635   4.2384   1.2286 H              1 <1>                0.0000
     73 H73         -4.8090   5.4392   3.3504 H              1 <1>                0.0000
     74 H74         -3.0179   5.4950   5.0393 H              1 <1>                0.0000
     75 H75         -0.8817   4.3493   4.6067 H              1 <1>                0.0000
     76 H76         -0.5379   3.1446   2.4868 H              1 <1>                0.0000
     77 H77         -4.6837   1.7535   0.3882 H              1 <1>                0.0000
     78 H78         -6.3328   1.2683   2.4557 H              1 <1>                0.0000
     79 H79         -7.6325   0.1336   0.8770 H              1 <1>                0.0000
     80 H80         -6.0536  -0.1359   0.0686 H              1 <1>                0.0000
     81 H81         -7.5675  -2.2729   0.8204 H              1 <1>                0.0000
     82 H82         -5.7889  -2.3154   1.0639 H              1 <1>                0.0000
     83 H83         -7.9764  -1.5876   3.0884 H              1 <1>                0.0000
     84 H84         -6.5894  -2.6984   3.3060 H              1 <1>                0.0000
     85 H85         -6.9493  -1.6186   5.7695 H              1 <1>                0.0000
     86 H86         -5.4811  -2.4988   5.2818 H              1 <1>                0.0000
@<TRIPOS>BOND
    1    1    2 1     
    2    1   47 1     
    3    1   48 1     
    4    1   49 1     
    5    2    3 1     
    6    2   50 1     
    7    2   51 1     
    8    3    4 1     
    9    3   52 1     
   10    3   53 1     
   11    4    5 1     
   12    4   54 1     
   13    4   55 1     
   14    5    6 1     
   15    5   44 1     
   16    5   56 1     
   17    6    7 am    
   18    6   57 1     
   19    7    8 2     
   20    7    9 1     
   21    9   13 1     
   22    9   10 1     
   23    9   58 1     
   24   10   11 1     
   25   10   59 1     
   26   10   60 1     
   27   11   12 1     
   28   11   61 1     
   29   11   62 1     
   30   12   13 1     
   31   12   63 1     
   32   12   64 1     
   33   13   14 am    
   34   14   15 2     
   35   14   16 1     
   36   16   17 1     
   37   16   65 1     
   38   16   66 1     
   39   17   18 1     
   40   17   67 1     
   41   17   68 1     
   42   18   19 ar    
   43   18   20 ar    
   44   18   21 1     
   45   21   22 1     
   46   21   29 1     
   47   21   69 1     
   48   22   23 1     
   49   22   70 1     
   50   22   71 1     
   51   23   28 ar    
   52   23   24 ar    
   53   24   25 ar    
   54   24   72 1     
   55   25   26 ar    
   56   25   73 1     
   57   26   27 ar    
   58   26   74 1     
   59   27   28 ar    
   60   27   75 1     
   61   28   76 1     
   62   29   30 am    
   63   29   77 1     
   64   30   31 2     
   65   30   32 1     
   66   32   36 1     
   67   32   33 1     
   68   32   78 1     
   69   33   34 1     
   70   33   79 1     
   71   33   80 1     
   72   34   35 1     
   73   34   81 1     
   74   34   82 1     
   75   35   36 1     
   76   35   83 1     
   77   35   84 1     
   78   36   37 am    
   79   37   38 2     
   80   37   39 1     
   81   39   40 1     
   82   39   85 1     
   83   39   86 1     
   84   40   41 1     
   85   40   42 1     
   86   40   43 1     
   87   44   45 ar    
   88   44   46 ar    
@<TRIPOS>SUBSTRUCTURE
      1 ****           1
@<TRIPOS>SET
DONOR_HYDROGENS      STATIC     ATOMS    <user>   **** ""
5 57 77 41 42 43
ATOM$RED        STATIC     ATOMS    COLORGROUP SYSTEM
5 57 77 41 42 43
