#       Name:                3E0
#       Creating user name   gbret
#       Creation time:       Thu Sep  8 22:42:21 2016


#       File generated by GOLD software.
#

@<TRIPOS>MOLECULE
3E0
    35    37     1
SMALL
NO_CHARGES


@<TRIPOS>ATOM
      1 C1           0.7919  -2.7940   1.7791 C.3            1 <1>                0.0000
      2 O2          -0.4209  -2.0391   1.7407 O.3            1 <1>                0.0000
      3 C3          -0.5811  -1.0799   2.6905 C.ar           1 <1>                0.0000
      4 C4          -1.1807  -1.3927   3.9017 C.ar           1 <1>                0.0000
      5 F5          -1.6060  -2.6529   4.1390 F              1 <1>                0.0000
      6 C6          -1.3429  -0.4146   4.8673 C.ar           1 <1>                0.0000
      7 C7          -0.9095   0.8781   4.6307 C.ar           1 <1>                0.0000
      8 C8          -0.3120   1.2021   3.4296 C.ar           1 <1>                0.0000
      9 C9          -0.1374   0.2236   2.4527 C.ar           1 <1>                0.0000
     10 C10          0.5042   0.5675   1.1606 C.2            1 <1>                0.0000
     11 C11          1.6417   1.2797   1.0897 C.2            1 <1>                0.0000
     12 S12          2.0701   1.4708  -0.6086 S.3            1 <1>                0.0000
     13 C13          0.6426   0.5515  -1.0753 C.2            1 <1>                0.0000
     14 N14         -0.0035   0.1874  -0.0110 N.2            1 <1>                0.0000
     15 N15          0.2705   0.2574  -2.3771 N.3            1 <1>                0.0000
     16 C16         -1.0892   0.7406  -2.6583 C.3            1 <1>                0.0000
     17 C17         -1.4815   0.3433  -4.0838 C.3            1 <1>                0.0000
     18 O18         -0.5193   0.8693  -5.0019 O.3            1 <1>                0.0000
     19 C19          0.8158   0.4187  -4.7575 C.3            1 <1>                0.0000
     20 C20          1.2315   0.8168  -3.3389 C.3            1 <1>                0.0000
     21 H21          0.7918  -3.5232   0.9690 H              1 <1>                0.0000
     22 H22          1.6420  -2.1218   1.6629 H              1 <1>                0.0000
     23 H23          0.8668  -3.3127   2.7349 H              1 <1>                0.0000
     24 H24         -1.8100  -0.6611   5.8094 H              1 <1>                0.0000
     25 H25         -1.0397   1.6364   5.3886 H              1 <1>                0.0000
     26 H26          0.0246   2.2122   3.2488 H              1 <1>                0.0000
     27 H27          2.1978   1.6686   1.9299 H              1 <1>                0.0000
     28 H28         -1.7877   0.2941  -1.9507 H              1 <1>                0.0000
     29 H29         -1.1168   1.8260  -2.5623 H              1 <1>                0.0000
     30 H30         -1.5060  -0.7434  -4.1651 H              1 <1>                0.0000
     31 H31         -2.4662   0.7486  -4.3166 H              1 <1>                0.0000
     32 H32          0.8582  -0.6658  -4.8584 H              1 <1>                0.0000
     33 H33          1.4927   0.8786  -5.4776 H              1 <1>                0.0000
     34 H34          1.2409   1.9035  -3.2538 H              1 <1>                0.0000
     35 H35          2.2269   0.4259  -3.1280 H              1 <1>                0.0000
@<TRIPOS>BOND
    1    1    2 1     
    2    1   21 1     
    3    1   22 1     
    4    1   23 1     
    5    2    3 1     
    6    3    9 ar    
    7    3    4 ar    
    8    4    5 1     
    9    4    6 ar    
   10    6    7 ar    
   11    6   24 1     
   12    7    8 ar    
   13    7   25 1     
   14    8    9 ar    
   15    8   26 1     
   16    9   10 1     
   17   10   14 1     
   18   10   11 2     
   19   11   12 1     
   20   11   27 1     
   21   12   13 1     
   22   13   14 2     
   23   13   15 1     
   24   15   20 1     
   25   15   16 1     
   26   16   17 1     
   27   16   28 1     
   28   16   29 1     
   29   17   18 1     
   30   17   30 1     
   31   17   31 1     
   32   18   19 1     
   33   19   20 1     
   34   19   32 1     
   35   19   33 1     
   36   20   34 1     
   37   20   35 1     
@<TRIPOS>SUBSTRUCTURE
      1 ****           1
