#       Name:                3JO
#       Creating user name   gbret
#       Creation time:       Thu Sep  8 22:54:25 2016


#       File generated by GOLD software.
#

@<TRIPOS>MOLECULE
3JO
    85    88     1
SMALL
NO_CHARGES


@<TRIPOS>ATOM
      1 C1           5.1584   5.5708   3.3759 C.3            1 <1>                0.0000
      2 C2           4.4663   4.2462   3.1820 C.2            1 <1>                0.0000
      3 O3           3.8310   3.7552   4.0909 O.2            1 <1>                0.0000
      4 N4           4.5534   3.6073   1.9985 N.am           1 <1>                0.0000
      5 C5           3.8806   2.3197   1.8100 C.3            1 <1>                0.0000
      6 C6           4.4267   1.3065   2.8181 C.3            1 <1>                0.0000
      7 C7           5.8815   1.0425   2.5270 C.ar           1 <1>                0.0000
      8 C8           6.2397   0.0299   1.6568 C.ar           1 <1>                0.0000
      9 C9           7.5742  -0.2122   1.3899 C.ar           1 <1>                0.0000
     10 C10          8.5506   0.5585   1.9928 C.ar           1 <1>                0.0000
     11 C11          8.1924   1.5717   2.8623 C.ar           1 <1>                0.0000
     12 C12          6.8577   1.8166   3.1259 C.ar           1 <1>                0.0000
     13 C13          2.3986   2.4913   2.0229 C.2            1 <1>                0.0000
     14 O14          1.9816   3.4473   2.6418 O.2            1 <1>                0.0000
     15 N15          1.5366   1.5824   1.5255 N.am           1 <1>                0.0000
     16 C16          0.0959   1.7493   1.7325 C.3            1 <1>                0.0000
     17 C17         -0.6548   1.0334   0.6393 C.2            1 <1>                0.0000
     18 O18         -0.2340  -0.0165   0.2019 O.2            1 <1>                0.0000
     19 N19         -1.7940   1.5600   0.1479 N.am           1 <1>                0.0000
     20 C20         -2.3501   2.8755   0.4966 C.3            1 <1>                0.0000
     21 C21         -3.6417   3.0601  -0.3277 C.3            1 <1>                0.0000
     22 O22         -3.7549   4.4056  -0.7956 O.3            1 <1>                0.0000
     23 C23         -3.4393   2.0814  -1.5145 C.3            1 <1>                0.0000
     24 C24         -2.6854   0.9149  -0.8333 C.3            1 <1>                0.0000
     25 C25         -1.8835   0.1440  -1.8500 C.2            1 <1>                0.0000
     26 O26         -0.7506   0.4864  -2.1151 O.2            1 <1>                0.0000
     27 N27         -2.4253  -0.9261  -2.4648 N.am           1 <1>                0.0000
     28 C28         -1.6458  -1.6756  -3.4531 C.3            1 <1>                0.0000
     29 C29         -2.4745  -2.8155  -3.9869 C.ar           1 <1>                0.0000
     30 C30         -2.4387  -4.0469  -3.3572 C.ar           1 <1>                0.0000
     31 C31         -3.1950  -5.0946  -3.8409 C.ar           1 <1>                0.0000
     32 C32         -3.9973  -4.9101  -4.9677 C.ar           1 <1>                0.0000
     33 C33         -4.0288  -3.6656  -5.5981 C.ar           1 <1>                0.0000
     34 C34         -3.2721  -2.6245  -5.1011 C.ar           1 <1>                0.0000
     35 C35         -4.8101  -6.0288  -5.4918 C.2            1 <1>                0.0000
     36 S36         -4.9085  -6.5414  -7.1747 S.3            1 <1>                0.0000
     37 C37         -6.0024  -7.7821  -6.7431 C.2            1 <1>                0.0000
     38 N38         -6.2268  -7.7612  -5.4717 N.2            1 <1>                0.0000
     39 C39         -5.6049  -6.8435  -4.7651 C.2            1 <1>                0.0000
     40 C40         -5.7734  -6.7054  -3.2739 C.3            1 <1>                0.0000
     41 C41         -0.2958   1.1614   3.0896 C.3            1 <1>                0.0000
     42 C42          0.3804   1.9601   4.2057 C.3            1 <1>                0.0000
     43 C43         -1.8147   1.2351   3.2581 C.3            1 <1>                0.0000
     44 C44          0.1552  -0.2988   3.1622 C.3            1 <1>                0.0000
     45 H45          6.1687   5.4017   3.7484 H              1 <1>                0.0000
     46 H46          5.2059   6.0988   2.4235 H              1 <1>                0.0000
     47 H47          4.6011   6.1699   4.0961 H              1 <1>                0.0000
     48 H48          5.0615   4.0000   1.2715 H              1 <1>                0.0000
     49 H49          4.0628   1.9593   0.7976 H              1 <1>                0.0000
     50 H50          4.3247   1.7066   3.8268 H              1 <1>                0.0000
     51 H51          3.8654   0.3756   2.7379 H              1 <1>                0.0000
     52 H52          5.4768  -0.5723   1.1858 H              1 <1>                0.0000
     53 H53          7.8540  -1.0038   0.7105 H              1 <1>                0.0000
     54 H54          9.5932   0.3689   1.7847 H              1 <1>                0.0000
     55 H55          8.9553   2.1737   3.3336 H              1 <1>                0.0000
     56 H56          6.5779   2.6082   3.8052 H              1 <1>                0.0000
     57 H57          1.8701   0.8178   1.0305 H              1 <1>                0.0000
     58 H58         -0.1539   2.8101   1.7103 H              1 <1>                0.0000
     59 H59         -2.5818   2.9096   1.5612 H              1 <1>                0.0000
     60 H60         -1.6349   3.6588   0.2454 H              1 <1>                0.0000
     61 H61         -4.5170   2.7826   0.2596 H              1 <1>                0.0000
     62 H62         -3.8057   5.0645  -0.0897 H              1 <1>                0.0000
     63 H63         -4.3972   1.7490  -1.9145 H              1 <1>                0.0000
     64 H64         -2.8279   2.5346  -2.2948 H              1 <1>                0.0000
     65 H65         -3.3878   0.2554  -0.3237 H              1 <1>                0.0000
     66 H66         -3.3314  -1.2000  -2.2528 H              1 <1>                0.0000
     67 H67         -1.3668  -1.0141  -4.2733 H              1 <1>                0.0000
     68 H68         -0.7454  -2.0703  -2.9823 H              1 <1>                0.0000
     69 H69         -1.8172  -4.1885  -2.4854 H              1 <1>                0.0000
     70 H70         -3.1660  -6.0554  -3.3487 H              1 <1>                0.0000
     71 H71         -4.6477  -3.5164  -6.4706 H              1 <1>                0.0000
     72 H72         -3.2959  -1.6607  -5.5879 H              1 <1>                0.0000
     73 H73         -6.4435  -8.4837  -7.4356 H              1 <1>                0.0000
     74 H74         -4.9725  -7.2431  -2.7664 H              1 <1>                0.0000
     75 H75         -5.7337  -5.6511  -2.9999 H              1 <1>                0.0000
     76 H76         -6.7359  -7.1220  -2.9769 H              1 <1>                0.0000
     77 H77          0.0592   3.0004   4.1540 H              1 <1>                0.0000
     78 H78          0.1014   1.5413   5.1726 H              1 <1>                0.0000
     79 H79          1.4625   1.9076   4.0857 H              1 <1>                0.0000
     80 H80         -2.2943   0.6052   2.5088 H              1 <1>                0.0000
     81 H81         -2.0871   0.8864   4.2542 H              1 <1>                0.0000
     82 H82         -2.1448   2.2661   3.1311 H              1 <1>                0.0000
     83 H83          1.2373  -0.3513   3.0422 H              1 <1>                0.0000
     84 H84         -0.1239  -0.7176   4.1290 H              1 <1>                0.0000
     85 H85         -0.3266  -0.8678   2.3670 H              1 <1>                0.0000
@<TRIPOS>BOND
    1    1    2 1     
    2    1   45 1     
    3    1   46 1     
    4    1   47 1     
    5    2    3 2     
    6    2    4 am    
    7    4    5 1     
    8    4   48 1     
    9    5    6 1     
   10    5   13 1     
   11    5   49 1     
   12    6    7 1     
   13    6   50 1     
   14    6   51 1     
   15    7   12 ar    
   16    7    8 ar    
   17    8    9 ar    
   18    8   52 1     
   19    9   10 ar    
   20    9   53 1     
   21   10   11 ar    
   22   10   54 1     
   23   11   12 ar    
   24   11   55 1     
   25   12   56 1     
   26   13   14 2     
   27   13   15 am    
   28   15   16 1     
   29   15   57 1     
   30   16   17 1     
   31   16   41 1     
   32   16   58 1     
   33   17   18 2     
   34   17   19 am    
   35   19   24 1     
   36   19   20 1     
   37   20   21 1     
   38   20   59 1     
   39   20   60 1     
   40   21   22 1     
   41   21   23 1     
   42   21   61 1     
   43   22   62 1     
   44   23   24 1     
   45   23   63 1     
   46   23   64 1     
   47   24   25 1     
   48   24   65 1     
   49   25   26 2     
   50   25   27 am    
   51   27   28 1     
   52   27   66 1     
   53   28   29 1     
   54   28   67 1     
   55   28   68 1     
   56   29   34 ar    
   57   29   30 ar    
   58   30   31 ar    
   59   30   69 1     
   60   31   32 ar    
   61   31   70 1     
   62   32   33 ar    
   63   32   35 1     
   64   33   34 ar    
   65   33   71 1     
   66   34   72 1     
   67   35   39 2     
   68   35   36 1     
   69   36   37 1     
   70   37   38 2     
   71   37   73 1     
   72   38   39 1     
   73   39   40 1     
   74   40   74 1     
   75   40   75 1     
   76   40   76 1     
   77   41   42 1     
   78   41   43 1     
   79   41   44 1     
   80   42   77 1     
   81   42   78 1     
   82   42   79 1     
   83   43   80 1     
   84   43   81 1     
   85   43   82 1     
   86   44   83 1     
   87   44   84 1     
   88   44   85 1     
@<TRIPOS>SUBSTRUCTURE
      1 ****           1
@<TRIPOS>SET
DONOR_HYDROGENS      STATIC     ATOMS    <user>   **** ""
4 48 57 62 66
ATOM$RED        STATIC     ATOMS    COLORGROUP SYSTEM
4 48 57 62 66
