#       Name:                3KH
#       Creating user name   gbret
#       Creation time:       Thu Sep  8 22:56:31 2016


#       File generated by GOLD software.
#

@<TRIPOS>MOLECULE
3KH
    21    23     1
SMALL
NO_CHARGES


@<TRIPOS>ATOM
      1 N1          -0.6786   5.0517   0.0324 N.pl3          1 <1>                0.0000
      2 C2          -0.6598   3.6664   0.0248 C.2            1 <1>                0.0000
      3 N3          -1.7029   2.8841   0.0249 N.2            1 <1>                0.0000
      4 N4          -1.5016   1.6393   0.0168 N.2            1 <1>                0.0000
      5 C5          -0.2662   1.2253   0.0091 C.2            1 <1>                0.0000
      6 S6           0.7801   2.6464   0.0056 S.3            1 <1>                0.0000
      7 C7           0.1794  -0.1835  -0.0010 C.ar           1 <1>                0.0000
      8 C8           1.5490  -0.4843  -0.0023 C.ar           1 <1>                0.0000
      9 C9           1.9744  -1.7766  -0.0110 C.ar           1 <1>                0.0000
     10 C10          1.0422  -2.8251  -0.0193 C.ar           1 <1>                0.0000
     11 N11          1.1711  -4.1667  -0.0290 N.2            1 <1>                0.0000
     12 N12          0.0138  -4.7278  -0.0339 N.2            1 <1>                0.0000
     13 N13         -0.9836  -3.7415  -0.0273 N.pl3          1 <1>                0.0000
     14 H14         -1.9428  -3.8857  -0.0290 H              1 <1>                0.0000
     15 C15         -0.3330  -2.5294  -0.0180 C.ar           1 <1>                0.0000
     16 C16         -0.7601  -1.2087  -0.0033 C.ar           1 <1>                0.0000
     17 H17          0.1547   5.5481   0.0271 H              1 <1>                0.0000
     18 H18         -1.5251   5.5253   0.0390 H              1 <1>                0.0000
     19 H19          2.2728   0.3172   0.0033 H              1 <1>                0.0000
     20 H20          3.0319  -1.9958  -0.0119 H              1 <1>                0.0000
     21 H21         -1.8154  -0.9788   0.0033 H              1 <1>                0.0000
@<TRIPOS>BOND
    1    1    2 1     
    2    1   17 1     
    3    1   18 1     
    4    2    6 1     
    5    2    3 2     
    6    3    4 1     
    7    4    5 2     
    8    5    6 1     
    9    5    7 1     
   10    7   16 ar    
   11    7    8 ar    
   12    8    9 ar    
   13    8   19 1     
   14    9   10 ar    
   15    9   20 1     
   16   10   15 ar    
   17   10   11 1     
   18   11   12 2     
   19   12   13 1     
   20   13   14 1     
   21   13   15 1     
   22   15   16 ar    
   23   16   21 1     
@<TRIPOS>SUBSTRUCTURE
      1 ****           1
@<TRIPOS>SET
DONOR_HYDROGENS      STATIC     ATOMS    <user>   **** ""
3 17 18 14
ATOM$RED        STATIC     ATOMS    COLORGROUP SYSTEM
3 17 18 14
