@<TRIPOS>MOLECULE
3LX
  40   39    0    0    0
SMALL
NO_CHARGES


@<TRIPOS>ATOM
   1 C1            -0.0187     1.5258     0.0104 C.3     
   2 C2             0.0021    -0.0041     0.0020 C.3     
   3 C3            -1.4333    -0.5336     0.0129 C.3     
   4 C4            -1.4126    -2.0635     0.0045 C.3     
   5 C5            -2.8479    -2.5931     0.0153 C.3     
   6 C6            -2.8272    -4.1229     0.0069 C.3     
   7 C7            -4.2626    -4.6525     0.0178 C.3     
   8 C8            -4.2418    -6.1823     0.0094 C.3     
   9 C9            -5.6772    -6.7119     0.0202 C.3     
  10 C10           -5.6565    -8.2417     0.0118 C.3     
  11 C11           -7.0918    -8.7713     0.0227 C.3     
  12 C12           -7.0711   -10.3012     0.0143 C.3     
  13 C13           -8.4849   -10.8228     0.0250 C.2     
  14 S14           -8.9709   -11.8386    -1.1103 S.2     
  15 H15            1.0039     1.9031     0.0027 H       
  16 H16           -0.5459     1.8868    -0.8726 H       
  17 H17           -0.5289     1.8773     0.9072 H       
  18 H18            0.5123    -0.3556    -0.8948 H       
  19 H19            0.5293    -0.3651     0.8851 H       
  20 H20           -1.9435    -0.1821     0.9097 H       
  21 H21           -1.9605    -0.1726    -0.8702 H       
  22 H22           -0.9024    -2.4150    -0.8923 H       
  23 H23           -0.8854    -2.4246     0.8875 H       
  24 H24           -3.3581    -2.2415     0.9121 H       
  25 H25           -3.3751    -2.2320    -0.8677 H       
  26 H26           -2.3170    -4.4744    -0.8899 H       
  27 H27           -2.3000    -4.4840     0.8900 H       
  28 H28           -4.7728    -4.3010     0.9146 H       
  29 H29           -4.7898    -4.2914    -0.8653 H       
  30 H30           -3.7316    -6.5338    -0.8874 H       
  31 H31           -3.7146    -6.5434     0.8924 H       
  32 H32           -6.1874    -6.3604     0.9170 H       
  33 H33           -6.2044    -6.3508    -0.8628 H       
  34 H34           -5.1463    -8.5933    -0.8850 H       
  35 H35           -5.1293    -8.6028     0.8949 H       
  36 H36           -7.6020    -8.4198     0.9195 H       
  37 H37           -7.6190    -8.4102    -0.8604 H       
  38 H38           -6.5609   -10.6527    -0.8825 H       
  39 H39           -6.5439   -10.6622     0.8973 H       
  40 H40           -9.1699   -10.5105     0.7994 H       
@<TRIPOS>BOND
   1    1    2 1
   2    1   15 1
   3    1   16 1
   4    1   17 1
   5    2    3 1
   6    2   18 1
   7    2   19 1
   8    3    4 1
   9    3   20 1
  10    3   21 1
  11    4    5 1
  12    4   22 1
  13    4   23 1
  14    5    6 1
  15    5   24 1
  16    5   25 1
  17    6    7 1
  18    6   26 1
  19    6   27 1
  20    7    8 1
  21    7   28 1
  22    7   29 1
  23    8    9 1
  24    8   30 1
  25    8   31 1
  26    9   10 1
  27    9   32 1
  28    9   33 1
  29   10   11 1
  30   10   34 1
  31   10   35 1
  32   11   12 1
  33   11   36 1
  34   11   37 1
  35   12   13 1
  36   12   38 1
  37   12   39 1
  38   13   14 2
  39   13   40 1





