#       Name:                3MB
#       Creating user name   gbret
#       Creation time:       Thu Sep  8 23:00:56 2016


#       File generated by GOLD software.
#

@<TRIPOS>MOLECULE
3MB
    20    20     1
SMALL
NO_CHARGES


@<TRIPOS>ATOM
      1 C1          -1.1351   2.8086  -1.8393 C.3            1 <1>                0.0000
      2 O2          -1.1157   1.3797  -1.8472 O.3            1 <1>                0.0000
      3 C3          -0.4919   0.7654  -0.8076 C.ar           1 <1>                0.0000
      4 C4           0.0845   1.5243   0.2022 C.ar           1 <1>                0.0000
      5 C5           0.7199   0.9049   1.2623 C.ar           1 <1>                0.0000
      6 C6           0.7859  -0.4723   1.3235 C.ar           1 <1>                0.0000
      7 C7           0.2094  -1.2434   0.3132 C.ar           1 <1>                0.0000
      8 C8          -0.4366  -0.6169  -0.7532 C.ar           1 <1>                0.0000
      9 C9           0.2786  -2.7191   0.3752 C.2            1 <1>                0.0000
     10 N10          0.8992  -3.3218   1.4087 N.am           1 <1>                0.0000
     11 O11         -0.2242  -3.3886  -0.5059 O.2            1 <1>                0.0000
     12 H12         -0.1125   3.1859  -1.8471 H              1 <1>                0.0000
     13 H13         -1.6623   3.1697  -2.7224 H              1 <1>                0.0000
     14 H14         -1.6453   3.1601  -0.9425 H              1 <1>                0.0000
     15 H15          0.0366   2.6024   0.1592 H              1 <1>                0.0000
     16 H16          1.1664   1.5006   2.0447 H              1 <1>                0.0000
     17 H17          1.2837  -0.9530   2.1527 H              1 <1>                0.0000
     18 H18         -0.8848  -1.2083  -1.5378 H              1 <1>                0.0000
     19 H19          0.9446  -4.2899   1.4493 H              1 <1>                0.0000
     20 H20          1.3004  -2.7874   2.1118 H              1 <1>                0.0000
@<TRIPOS>BOND
    1    1    2 1     
    2    1   12 1     
    3    1   13 1     
    4    1   14 1     
    5    2    3 1     
    6    3    8 ar    
    7    3    4 ar    
    8    4    5 ar    
    9    4   15 1     
   10    5    6 ar    
   11    5   16 1     
   12    6    7 ar    
   13    6   17 1     
   14    7    8 ar    
   15    7    9 1     
   16    8   18 1     
   17    9   10 am    
   18    9   11 2     
   19   10   19 1     
   20   10   20 1     
@<TRIPOS>SUBSTRUCTURE
      1 ****           1
@<TRIPOS>SET
DONOR_HYDROGENS      STATIC     ATOMS    <user>   **** ""
2 19 20
ATOM$RED        STATIC     ATOMS    COLORGROUP SYSTEM
2 19 20
