@<TRIPOS>MOLECULE
3MO
  14   14    0    0    0
SMALL
NO_CHARGES


@<TRIPOS>ATOM
   1 C1            -0.0178     1.4608     0.0101 C.3     
   2 N2             0.0021    -0.0041     0.0020 N.am    
   3 C3            -1.1828    -0.8756     0.0027 C.3     
   4 C4            -0.5917    -2.2986    -0.0083 C.3     
   5 O5             0.8491    -2.0819    -0.0140 O.3     
   6 C6             1.1026    -0.7684    -0.0131 C.2     
   7 O7             2.2281    -0.3103    -0.0171 O.2     
   8 H8             1.0048     1.8381     0.0023 H       
   9 H9            -0.5450     1.8219    -0.8730 H       
  10 H10           -0.5280     1.8123     0.9069 H       
  11 H11           -1.7761    -0.7145     0.9028 H       
  12 H12           -1.7848    -0.7042    -0.8896 H       
  13 H13           -0.8925    -2.8443     0.8861 H       
  14 H14           -0.9011    -2.8340    -0.9059 H       
@<TRIPOS>BOND
   1    1    2 1
   2    1    8 1
   3    1    9 1
   4    1   10 1
   5    2    6 am
   6    2    3 1
   7    3    4 1
   8    3   11 1
   9    3   12 1
  10    4    5 1
  11    4   13 1
  12    4   14 1
  13    5    6 1
  14    6    7 2





