#       Name:                3N8
#       Creating user name   gbret
#       Creation time:       Thu Sep  8 23:02:56 2016


#       File generated by GOLD software.
#

@<TRIPOS>MOLECULE
3N8
    14    14     1
SMALL
NO_CHARGES


@<TRIPOS>ATOM
      1 O1          -0.1612   2.4001  -0.1985 O.3            1 <1>                0.0000
      2 C2          -0.1427   1.0398  -0.2060 C.ar           1 <1>                0.0000
      3 C3          -0.1390   0.3527  -1.4090 C.ar           1 <1>                0.0000
      4 C4          -0.1197  -1.0296  -1.4160 C.ar           1 <1>                0.0000
      5 C5          -0.1047  -1.7303  -0.2220 C.ar           1 <1>                0.0000
      6 F6          -0.0859  -3.0811  -0.2328 F              1 <1>                0.0000
      7 C7          -0.1083  -1.0488   0.9828 C.ar           1 <1>                0.0000
      8 C8          -0.1218   0.3367   0.9945 C.ar           1 <1>                0.0000
      9 O9          -0.1254   1.0080   2.1772 O.3            1 <1>                0.0000
     10 H10          0.7168   2.8054  -0.2047 H              1 <1>                0.0000
     11 H11         -0.1514   0.8972  -2.3416 H              1 <1>                0.0000
     12 H12         -0.1168  -1.5639  -2.3546 H              1 <1>                0.0000
     13 H13         -0.0969  -1.5968   1.9134 H              1 <1>                0.0000
     14 H14          0.7569   1.2108   2.5171 H              1 <1>                0.0000
@<TRIPOS>BOND
    1    1    2 1     
    2    1   10 1     
    3    2    8 ar    
    4    2    3 ar    
    5    3    4 ar    
    6    3   11 1     
    7    4    5 ar    
    8    4   12 1     
    9    5    6 1     
   10    5    7 ar    
   11    7    8 ar    
   12    7   13 1     
   13    8    9 1     
   14    9   14 1     
@<TRIPOS>SUBSTRUCTURE
      1 ****           1
@<TRIPOS>SET
DONOR_HYDROGENS      STATIC     ATOMS    <user>   **** ""
2 10 14
ATOM$RED        STATIC     ATOMS    COLORGROUP SYSTEM
2 10 14
