#       Name:                3N9
#       Creating user name   gbret
#       Creation time:       Thu Sep  8 23:03:00 2016


#       File generated by GOLD software.
#

@<TRIPOS>MOLECULE
3N9
    16    16     1
SMALL
NO_CHARGES


@<TRIPOS>ATOM
      1 O1           1.5569   2.2431   0.7080 O.3            1 <1>                0.0000
      2 O2           1.5768   0.7742   0.6999 O.3            1 <1>                0.0000
      3 C3           0.2794   0.1753   0.7091 C.3            1 <1>                0.0000
      4 O4          -0.3060   0.4313   1.9873 O.3            1 <1>                0.0000
      5 C5          -0.5620   0.8780  -0.3334 C.2            1 <1>                0.0000
      6 C6          -1.1045   0.1542  -1.3187 C.2            1 <1>                0.0000
      7 F7          -1.8575   0.7730  -2.2544 F              1 <1>                0.0000
      8 C8          -0.9016  -1.2856  -1.4065 C.2            1 <1>                0.0000
      9 C9          -0.1628  -1.9748  -0.5096 C.2            1 <1>                0.0000
     10 C10          0.4594  -1.3215   0.5737 C.2            1 <1>                0.0000
     11 O11          1.1231  -1.9441   1.3784 O.2            1 <1>                0.0000
     12 H12          2.4348   2.6484   0.7018 H              1 <1>                0.0000
     13 H13         -0.4056   1.3708   2.1932 H              1 <1>                0.0000
     14 H14         -0.7221   1.9447  -0.2826 H              1 <1>                0.0000
     15 H15         -1.3611  -1.8245  -2.2219 H              1 <1>                0.0000
     16 H16         -0.0471  -3.0425  -0.6242 H              1 <1>                0.0000
@<TRIPOS>BOND
    1    1    2 1     
    2    1   12 1     
    3    2    3 1     
    4    3   10 1     
    5    3    4 1     
    6    3    5 1     
    7    4   13 1     
    8    5    6 2     
    9    5   14 1     
   10    6    7 1     
   11    6    8 1     
   12    8    9 2     
   13    8   15 1     
   14    9   10 1     
   15    9   16 1     
   16   10   11 2     
@<TRIPOS>SUBSTRUCTURE
      1 ****           1
@<TRIPOS>SET
DONOR_HYDROGENS      STATIC     ATOMS    <user>   **** ""
2 12 13
ATOM$RED        STATIC     ATOMS    COLORGROUP SYSTEM
2 12 13
