#       Name:                3ND
#       Creating user name   gbret
#       Creation time:       Thu Sep  8 23:03:15 2016


#       File generated by GOLD software.
#

@<TRIPOS>MOLECULE
3ND
    45    48     1
SMALL
NO_CHARGES


@<TRIPOS>ATOM
      1 Cl1         -1.8407  -3.9662   1.3287 Cl             1 <1>                0.0000
      2 C2          -1.8776  -2.2307   1.3500 C.ar           1 <1>                0.0000
      3 C3          -2.9446  -1.5543   0.7859 C.ar           1 <1>                0.0000
      4 C4          -2.9734  -0.1725   0.8032 C.ar           1 <1>                0.0000
      5 C5          -1.9362   0.5335   1.3835 C.ar           1 <1>                0.0000
      6 C6          -0.8698  -0.1418   1.9473 C.ar           1 <1>                0.0000
      7 C7          -0.8429  -1.5237   1.9361 C.ar           1 <1>                0.0000
      8 C8          -1.9677   2.0401   1.4011 C.3            1 <1>                0.0000
      9 C9          -1.2026   2.5902   2.6309 C.3            1 <1>                0.0000
     10 N10         -0.8098   3.9573   2.2032 N.4            1 <1>                0.0000
     11 H11         -1.5897   4.5901   2.3013 H              1 <1>                0.0000
     12 H12         -0.0270   4.2818   2.7509 H              1 <1>                0.0000
     13 C13         -0.4245   3.8395   0.7802 C.3            1 <1>                0.0000
     14 C14         -1.1691   2.6180   0.2102 C.3            1 <1>                0.0000
     15 C15         -0.1852   1.5986  -0.3036 C.2            1 <1>                0.0000
     16 O16          0.8760   1.4412   0.2621 O.2            1 <1>                0.0000
     17 N17         -0.4845   0.8619  -1.3917 N.am           1 <1>                0.0000
     18 C18          0.3711  -0.1616  -1.7977 C.ar           1 <1>                0.0000
     19 C19          1.2151  -0.7716  -0.8706 C.ar           1 <1>                0.0000
     20 C20          2.0527  -1.7760  -1.2761 C.ar           1 <1>                0.0000
     21 C21          2.9882  -2.4732  -0.3160 C.3            1 <1>                0.0000
     22 C22          3.8662  -3.5688  -0.8807 C.2            1 <1>                0.0000
     23 N23          3.8011  -3.8767  -2.1318 N.2            1 <1>                0.0000
     24 C24          2.9841  -3.2801  -3.0106 C.2            1 <1>                0.0000
     25 O25          2.9983  -3.6448  -4.1709 O.2            1 <1>                0.0000
     26 C26          2.0691  -2.1960  -2.6135 C.ar           1 <1>                0.0000
     27 C27          1.2236  -1.5834  -3.5391 C.ar           1 <1>                0.0000
     28 C28          0.3767  -0.5763  -3.1270 C.ar           1 <1>                0.0000
     29 Cl29        -0.6777   0.1887  -4.2745 Cl             1 <1>                0.0000
     30 H30         -3.7546  -2.1057   0.3319 H              1 <1>                0.0000
     31 H31         -3.8062   0.3556   0.3629 H              1 <1>                0.0000
     32 H32         -0.0596   0.4103   2.4002 H              1 <1>                0.0000
     33 H33         -0.0099  -2.0512   2.3770 H              1 <1>                0.0000
     34 H34         -2.9954   2.4031   1.3887 H              1 <1>                0.0000
     35 H35         -1.8554   2.6325   3.5028 H              1 <1>                0.0000
     36 H36         -0.3209   1.9838   2.8383 H              1 <1>                0.0000
     37 H37         -0.7191   4.7392   0.2400 H              1 <1>                0.0000
     38 H38          0.6520   3.6897   0.6981 H              1 <1>                0.0000
     39 H39         -1.8468   2.9257  -0.5861 H              1 <1>                0.0000
     40 H40         -1.2952   1.0436  -1.8925 H              1 <1>                0.0000
     41 H41          1.2085  -0.4534   0.1614 H              1 <1>                0.0000
     42 H42          3.6375  -1.7182   0.1272 H              1 <1>                0.0000
     43 H43          2.3869  -2.9045   0.4843 H              1 <1>                0.0000
     44 H44          4.5513  -4.0955  -0.2329 H              1 <1>                0.0000
     45 H45          1.2288  -1.8998  -4.5717 H              1 <1>                0.0000
@<TRIPOS>BOND
    1    1    2 1     
    2    2    7 ar    
    3    2    3 ar    
    4    3    4 ar    
    5    3   30 1     
    6    4    5 ar    
    7    4   31 1     
    8    5    6 ar    
    9    5    8 1     
   10    6    7 ar    
   11    6   32 1     
   12    7   33 1     
   13    8   14 1     
   14    8    9 1     
   15    8   34 1     
   16    9   10 1     
   17    9   35 1     
   18    9   36 1     
   19   10   11 1     
   20   10   12 1     
   21   10   13 1     
   22   13   14 1     
   23   13   37 1     
   24   13   38 1     
   25   14   15 1     
   26   14   39 1     
   27   15   16 2     
   28   15   17 am    
   29   17   18 1     
   30   17   40 1     
   31   18   28 ar    
   32   18   19 ar    
   33   19   20 ar    
   34   19   41 1     
   35   20   26 ar    
   36   20   21 1     
   37   21   22 1     
   38   21   42 1     
   39   21   43 1     
   40   22   23 2     
   41   22   44 1     
   42   23   24 1     
   43   24   25 2     
   44   24   26 1     
   45   26   27 ar    
   46   27   28 ar    
   47   27   45 1     
   48   28   29 1     
@<TRIPOS>SUBSTRUCTURE
      1 ****           1
@<TRIPOS>SET
DONOR_HYDROGENS      STATIC     ATOMS    <user>   **** ""
3 11 12 40
ATOM$RED        STATIC     ATOMS    COLORGROUP SYSTEM
3 11 12 40
