#       Name:                3O8
#       Creating user name   gbret
#       Creation time:       Thu Sep  8 23:04:58 2016


#       File generated by GOLD software.
#

@<TRIPOS>MOLECULE
3O8
    44    46     1
SMALL
NO_CHARGES


@<TRIPOS>ATOM
      1 N1          -0.5153   5.0877   0.0663 N.pl3          1 <1>                0.0000
      2 C2          -0.4965   3.7004   0.0582 C.ar           1 <1>                0.0000
      3 C3          -1.6880   2.9824   0.1930 C.ar           1 <1>                0.0000
      4 C4          -1.6799   1.6080   0.1859 C.ar           1 <1>                0.0000
      5 C5          -0.4799   0.9055   0.0441 C.ar           1 <1>                0.0000
      6 N6          -0.4822  -0.4819   0.0377 N.pl3          1 <1>                0.0000
      7 C7          -1.7522  -1.2123   0.0398 C.3            1 <1>                0.0000
      8 C8          -1.4752  -2.7169   0.0316 C.3            1 <1>                0.0000
      9 N9          -2.7486  -3.4493   0.0337 N.4            1 <1>                0.0000
     10 H10         -3.2737  -3.2085   0.8610 H              1 <1>                0.0000
     11 H11         -3.2808  -3.2008  -0.7867 H              1 <1>                0.0000
     12 C12         -2.4826  -4.8940   0.0259 C.3            1 <1>                0.0000
     13 C13         -3.8089  -5.6568   0.0281 C.3            1 <1>                0.0000
     14 O14         -4.5110  -5.3950  -1.1887 O.3            1 <1>                0.0000
     15 C15          0.7220   1.6050  -0.0916 C.ar           1 <1>                0.0000
     16 C16          1.9978   0.8837  -0.2392 C.2            1 <1>                0.0000
     17 O17          2.0065  -0.3064  -0.4925 O.2            1 <1>                0.0000
     18 C18          3.2645   1.6214  -0.0766 C.ar           1 <1>                0.0000
     19 C19          4.4716   0.9370   0.0743 C.ar           1 <1>                0.0000
     20 O20          4.4895  -0.4193   0.0730 O.co2          1 <1>                0.0000
     21 C21          5.6580   1.6513   0.2259 C.ar           1 <1>                0.0000
     22 C22          5.6499   3.0290   0.2278 C.ar           1 <1>                0.0000
     23 C23          4.4550   3.7296   0.0790 C.ar           1 <1>                0.0000
     24 O24          4.4568   5.0861   0.0817 O.co2          1 <1>                0.0000
     25 C25          3.2560   3.0314  -0.0732 C.ar           1 <1>                0.0000
     26 C26          1.9801   3.7546  -0.2296 C.2            1 <1>                0.0000
     27 O27          1.9739   4.9464  -0.4747 O.2            1 <1>                0.0000
     28 C28          0.7129   3.0167  -0.0905 C.ar           1 <1>                0.0000
     29 H29          0.3119   5.5845  -0.0313 H              1 <1>                0.0000
     30 H30         -1.3564   5.5607   0.1656 H              1 <1>                0.0000
     31 H31         -2.6228   3.5118   0.3039 H              1 <1>                0.0000
     32 H32         -2.6083   1.0663   0.2912 H              1 <1>                0.0000
     33 H33          0.3570  -0.9683   0.0318 H              1 <1>                0.0000
     34 H34         -2.3194  -0.9521   0.9335 H              1 <1>                0.0000
     35 H35         -2.3272  -0.9438  -0.8464 H              1 <1>                0.0000
     36 H36         -0.9079  -2.9771  -0.8621 H              1 <1>                0.0000
     37 H37         -0.9002  -2.9854   0.9179 H              1 <1>                0.0000
     38 H38         -1.9153  -5.1541  -0.8678 H              1 <1>                0.0000
     39 H39         -1.9076  -5.1624   0.9121 H              1 <1>                0.0000
     40 H40         -3.6131  -6.7258   0.1118 H              1 <1>                0.0000
     41 H41         -4.4141  -5.3309   0.8740 H              1 <1>                0.0000
     42 H42         -5.3630  -5.8473  -1.2563 H              1 <1>                0.0000
     43 H43          6.5915   1.1209   0.3431 H              1 <1>                0.0000
     44 H44          6.5771   3.5700   0.3460 H              1 <1>                0.0000
@<TRIPOS>BOND
    1    1    2 1     
    2    1   29 1     
    3    1   30 1     
    4    2   28 ar    
    5    2    3 ar    
    6    3    4 ar    
    7    3   31 1     
    8    4    5 ar    
    9    4   32 1     
   10    5    6 1     
   11    5   15 ar    
   12    6    7 1     
   13    6   33 1     
   14    7    8 1     
   15    7   34 1     
   16    7   35 1     
   17    8    9 1     
   18    8   36 1     
   19    8   37 1     
   20    9   10 1     
   21    9   11 1     
   22    9   12 1     
   23   12   13 1     
   24   12   38 1     
   25   12   39 1     
   26   13   14 1     
   27   13   40 1     
   28   13   41 1     
   29   14   42 1     
   30   15   28 ar    
   31   15   16 1     
   32   16   17 2     
   33   16   18 1     
   34   18   25 ar    
   35   18   19 ar    
   36   19   20 ar    
   37   19   21 ar    
   38   21   22 ar    
   39   21   43 1     
   40   22   23 ar    
   41   22   44 1     
   42   23   24 ar    
   43   23   25 ar    
   44   25   26 1     
   45   26   27 2     
   46   26   28 1     
@<TRIPOS>SUBSTRUCTURE
      1 ****           1
@<TRIPOS>SET
DONOR_HYDROGENS      STATIC     ATOMS    <user>   **** ""
6 29 30 33 10 11 42
ATOM$RED        STATIC     ATOMS    COLORGROUP SYSTEM
6 29 30 33 10 11 42
