#       Name:                3OS
#       Creating user name   gbret
#       Creation time:       Thu Sep  8 23:06:06 2016


#       File generated by GOLD software.
#

@<TRIPOS>MOLECULE
3OS
    49    50     1
SMALL
NO_CHARGES


@<TRIPOS>ATOM
      1 O1          -0.1359   6.1768   2.2028 O.3            1 <1>                0.0000
      2 C2           0.6107   5.4637   3.1908 C.3            1 <1>                0.0000
      3 C3           0.3732   3.9615   3.0236 C.3            1 <1>                0.0000
      4 O4           0.9022   3.5325   1.7674 O.3            1 <1>                0.0000
      5 N5           0.7332   2.1498   1.5132 N.am           1 <1>                0.0000
      6 C6           1.1877   1.6157   0.3624 C.2            1 <1>                0.0000
      7 O7           1.7431   2.3212  -0.4578 O.2            1 <1>                0.0000
      8 C8           1.0118   0.1766   0.0978 C.ar           1 <1>                0.0000
      9 C9           0.4815  -0.6557   1.0829 C.ar           1 <1>                0.0000
     10 C10          0.3177  -2.0139   0.8272 C.ar           1 <1>                0.0000
     11 C11         -0.2432  -2.8970   1.8663 C.2            1 <1>                0.0000
     12 N12         -0.3956  -4.1602   1.6289 N.2            1 <1>                0.0000
     13 O13         -0.9343  -5.0083   2.6267 O.3            1 <1>                0.0000
     14 C14         -1.0462  -6.3761   2.2286 C.3            1 <1>                0.0000
     15 C15         -1.6365  -7.1952   3.3782 C.3            1 <1>                0.0000
     16 O16         -2.9752  -6.7645   3.6316 O.3            1 <1>                0.0000
     17 C17          0.6857  -2.5432  -0.4189 C.ar           1 <1>                0.0000
     18 F18          0.5252  -3.8619  -0.6645 F              1 <1>                0.0000
     19 C19          1.2108  -1.7203  -1.3950 C.ar           1 <1>                0.0000
     20 F20          1.5632  -2.2359  -2.5930 F              1 <1>                0.0000
     21 C21          1.3727  -0.3600  -1.1502 C.ar           1 <1>                0.0000
     22 N22          1.9009   0.4644  -2.1337 N.pl3          1 <1>                0.0000
     23 C23          1.0481   1.1763  -2.9807 C.ar           1 <1>                0.0000
     24 C24         -0.3241   1.1565  -2.7599 C.ar           1 <1>                0.0000
     25 C25         -1.1684   1.8581  -3.5933 C.ar           1 <1>                0.0000
     26 C26         -0.6450   2.5898  -4.6609 C.ar           1 <1>                0.0000
     27 C27          0.7334   2.6090  -4.8817 C.ar           1 <1>                0.0000
     28 C28          1.5746   1.9091  -4.0411 C.ar           1 <1>                0.0000
     29 F29          2.9087   1.9269  -4.2530 F              1 <1>                0.0000
     30 C30         -1.5205   3.3191  -5.5282 C.1            1 <1>                0.0000
     31 C31         -2.2383   3.9169  -6.2393 C.1            1 <1>                0.0000
     32 H32         -0.0328   7.1372   2.2492 H              1 <1>                0.0000
     33 H33          1.6723   5.6794   3.0698 H              1 <1>                0.0000
     34 H34          0.2879   5.7742   4.1845 H              1 <1>                0.0000
     35 H35          0.8707   3.4231   3.8303 H              1 <1>                0.0000
     36 H36         -0.6969   3.7570   3.0561 H              1 <1>                0.0000
     37 H37          0.2902   1.5871   2.1674 H              1 <1>                0.0000
     38 H38          0.1989  -0.2474   2.0420 H              1 <1>                0.0000
     39 H39         -0.5268  -2.4898   2.8256 H              1 <1>                0.0000
     40 H40         -1.6983  -6.4490   1.3583 H              1 <1>                0.0000
     41 H41         -0.0589  -6.7631   1.9764 H              1 <1>                0.0000
     42 H42         -1.6395  -8.2511   3.1079 H              1 <1>                0.0000
     43 H43         -1.0328  -7.0513   4.2743 H              1 <1>                0.0000
     44 H44         -3.4126  -7.2417   4.3500 H              1 <1>                0.0000
     45 H45          2.8624   0.5463  -2.2330 H              1 <1>                0.0000
     46 H46         -0.7293   0.5903  -1.9343 H              1 <1>                0.0000
     47 H47         -2.2344   1.8415  -3.4207 H              1 <1>                0.0000
     48 H48          1.1411   3.1741  -5.7067 H              1 <1>                0.0000
     49 H49         -2.8803   4.4516  -6.8753 H              1 <1>                0.0000
@<TRIPOS>BOND
    1    1    2 1     
    2    1   32 1     
    3    2    3 1     
    4    2   33 1     
    5    2   34 1     
    6    3    4 1     
    7    3   35 1     
    8    3   36 1     
    9    4    5 1     
   10    5    6 am    
   11    5   37 1     
   12    6    7 2     
   13    6    8 1     
   14    8   21 ar    
   15    8    9 ar    
   16    9   10 ar    
   17    9   38 1     
   18   10   11 1     
   19   10   17 ar    
   20   11   12 2     
   21   11   39 1     
   22   12   13 1     
   23   13   14 1     
   24   14   15 1     
   25   14   40 1     
   26   14   41 1     
   27   15   16 1     
   28   15   42 1     
   29   15   43 1     
   30   16   44 1     
   31   17   18 1     
   32   17   19 ar    
   33   19   20 1     
   34   19   21 ar    
   35   21   22 1     
   36   22   23 1     
   37   22   45 1     
   38   23   28 ar    
   39   23   24 ar    
   40   24   25 ar    
   41   24   46 1     
   42   25   26 ar    
   43   25   47 1     
   44   26   27 ar    
   45   26   30 1     
   46   27   28 ar    
   47   27   48 1     
   48   28   29 1     
   49   30   31 3     
   50   31   49 1     
@<TRIPOS>SUBSTRUCTURE
      1 ****           1
@<TRIPOS>SET
DONOR_HYDROGENS      STATIC     ATOMS    <user>   **** ""
4 32 37 44 45
ATOM$RED        STATIC     ATOMS    COLORGROUP SYSTEM
4 32 37 44 45
