#       Name:                3P4
#       Creating user name   gbret
#       Creation time:       Thu Sep  8 23:07:03 2016


#       File generated by GOLD software.
#

@<TRIPOS>MOLECULE
3P4
    61    64     1
SMALL
NO_CHARGES


@<TRIPOS>ATOM
      1 C1           1.7674   5.3062   5.6729 C.3            1 <1>                0.0000
      2 C2           1.7882   3.7763   5.6645 C.3            1 <1>                0.0000
      3 N3           2.4758   3.3026   4.4559 N.3            1 <1>                0.0000
      4 C4           1.6279   3.4787   3.2621 C.3            1 <1>                0.0000
      5 C5           2.1023   2.0972   2.7898 C.3            1 <1>                0.0000
      6 C6           2.3101   1.8465   4.2900 C.3            1 <1>                0.0000
      7 N7           1.0506   1.2764   2.1845 N.pl3          1 <1>                0.0000
      8 N8          -0.1276   0.8700   2.8246 N.pl3          1 <1>                0.0000
      9 H9          -0.3842   1.0816   3.7358 H              1 <1>                0.0000
     10 C10         -0.8516   0.1225   1.9378 C.2            1 <1>                0.0000
     11 C11         -0.1130   0.0710   0.7486 C.2            1 <1>                0.0000
     12 N12         -0.6028  -0.6115  -0.3061 N.2            1 <1>                0.0000
     13 C13         -1.7582  -1.2271  -0.2369 C.2            1 <1>                0.0000
     14 N14         -2.5217  -1.2096   0.8987 N.am           1 <1>                0.0000
     15 H15         -3.3723  -1.6757   0.9157 H              1 <1>                0.0000
     16 C16         -2.0959  -0.5470   1.9969 C.2            1 <1>                0.0000
     17 O17         -2.7682  -0.5262   3.0133 O.2            1 <1>                0.0000
     18 C18         -2.2507  -1.9608  -1.4198 C.ar           1 <1>                0.0000
     19 C19         -3.4798  -2.6229  -1.3828 C.ar           1 <1>                0.0000
     20 C20         -3.8994  -3.3016  -2.5291 C.ar           1 <1>                0.0000
     21 C21         -3.0833  -3.2945  -3.6608 C.ar           1 <1>                0.0000
     22 N22         -1.9292  -2.6592  -3.6607 N.ar           1 <1>                0.0000
     23 C23         -1.4939  -1.9991  -2.6008 C.ar           1 <1>                0.0000
     24 O24         -0.2994  -1.3620  -2.6522 O.3            1 <1>                0.0000
     25 C25          0.4293  -1.4475  -3.8785 C.3            1 <1>                0.0000
     26 C26          1.7420  -0.6727  -3.7467 C.3            1 <1>                0.0000
     27 C27          2.5105  -0.7629  -5.0400 C.2            1 <1>                0.0000
     28 C28          2.8960   0.3302  -5.6503 C.2            1 <1>                0.0000
     29 C29         -5.1937  -4.0201  -2.5430 C.2            1 <1>                0.0000
     30 O30         -5.9815  -4.0219  -1.4362 O.3            1 <1>                0.0000
     31 C31         -5.5857  -4.6644  -3.6401 C.2            1 <1>                0.0000
     32 C32          1.0634   0.8150   0.9632 C.2            1 <1>                0.0000
     33 C33          2.1599   1.0349  -0.0470 C.3            1 <1>                0.0000
     34 C34          3.1992  -0.0810   0.0774 C.3            1 <1>                0.0000
     35 H35          2.7900   5.6835   5.6652 H              1 <1>                0.0000
     36 H36          1.2402   5.6672   4.7899 H              1 <1>                0.0000
     37 H37          1.2572   5.6577   6.5697 H              1 <1>                0.0000
     38 H38          2.3154   3.4153   6.5476 H              1 <1>                0.0000
     39 H39          0.7656   3.3990   5.6723 H              1 <1>                0.0000
     40 H40          0.5623   3.5179   3.4883 H              1 <1>                0.0000
     41 H41          1.9525   4.2938   2.6154 H              1 <1>                0.0000
     42 H42          3.0243   2.1166   2.2087 H              1 <1>                0.0000
     43 H43          3.2129   1.2784   4.5144 H              1 <1>                0.0000
     44 H44          1.4266   1.4502   4.7905 H              1 <1>                0.0000
     45 H45         -4.0894  -2.6107  -0.4914 H              1 <1>                0.0000
     46 H46         -3.4023  -3.8179  -4.5500 H              1 <1>                0.0000
     47 H47          0.6449  -2.4926  -4.1008 H              1 <1>                0.0000
     48 H48         -0.1658  -1.0197  -4.6853 H              1 <1>                0.0000
     49 H49          1.5264   0.3723  -3.5244 H              1 <1>                0.0000
     50 H50          2.3371  -1.1006  -2.9399 H              1 <1>                0.0000
     51 H51          2.7433  -1.7287  -5.4636 H              1 <1>                0.0000
     52 H52          2.6632   1.2960  -5.2267 H              1 <1>                0.0000
     53 H53          3.4468   0.2656  -6.5771 H              1 <1>                0.0000
     54 H54         -6.8057  -4.5167  -1.5409 H              1 <1>                0.0000
     55 H55         -4.9594  -4.6629  -4.5200 H              1 <1>                0.0000
     56 H56         -6.5299  -5.1885  -3.6503 H              1 <1>                0.0000
     57 H57          1.7359   1.0262  -1.0511 H              1 <1>                0.0000
     58 H58          2.6365   1.9976   0.1378 H              1 <1>                0.0000
     59 H59          3.9923   0.0781  -0.6532 H              1 <1>                0.0000
     60 H60          3.6233  -0.0722   1.0815 H              1 <1>                0.0000
     61 H61          2.7227  -1.0437  -0.1074 H              1 <1>                0.0000
@<TRIPOS>BOND
    1    1    2 1     
    2    1   35 1     
    3    1   36 1     
    4    1   37 1     
    5    2    3 1     
    6    2   38 1     
    7    2   39 1     
    8    3    6 1     
    9    3    4 1     
   10    4    5 1     
   11    4   40 1     
   12    4   41 1     
   13    5    6 1     
   14    5    7 1     
   15    5   42 1     
   16    6   43 1     
   17    6   44 1     
   18    7   32 2     
   19    7    8 1     
   20    8    9 1     
   21    8   10 1     
   22   10   16 1     
   23   10   11 2     
   24   11   12 1     
   25   11   32 1     
   26   12   13 2     
   27   13   14 1     
   28   13   18 1     
   29   14   15 1     
   30   14   16 am    
   31   16   17 2     
   32   18   23 ar    
   33   18   19 ar    
   34   19   20 ar    
   35   19   45 1     
   36   20   21 ar    
   37   20   29 1     
   38   21   22 ar    
   39   21   46 1     
   40   22   23 ar    
   41   23   24 1     
   42   24   25 1     
   43   25   26 1     
   44   25   47 1     
   45   25   48 1     
   46   26   27 1     
   47   26   49 1     
   48   26   50 1     
   49   27   28 2     
   50   27   51 1     
   51   28   52 1     
   52   28   53 1     
   53   29   30 1     
   54   29   31 2     
   55   30   54 1     
   56   31   55 1     
   57   31   56 1     
   58   32   33 1     
   59   33   34 1     
   60   33   57 1     
   61   33   58 1     
   62   34   59 1     
   63   34   60 1     
   64   34   61 1     
@<TRIPOS>SUBSTRUCTURE
      1 ****           1
@<TRIPOS>SET
DONOR_HYDROGENS      STATIC     ATOMS    <user>   **** ""
3 9 15 54
ATOM$RED        STATIC     ATOMS    COLORGROUP SYSTEM
3 9 15 54
