#       Name:                3P8
#       Creating user name   gbret
#       Creation time:       Thu Sep  8 23:07:20 2016


#       File generated by GOLD software.
#

@<TRIPOS>MOLECULE
3P8
     8     7     1
SMALL
NO_CHARGES


@<TRIPOS>ATOM
      1 C1          -0.0098   0.7243   0.0040 C.3            1 <1>                0.0000
      2 N2           0.0101  -0.7446  -0.0041 N.4            1 <1>                0.0000
      3 H3           0.4981  -1.0788   0.8134 H              1 <1>                0.0000
      4 H4          -0.9365  -1.0938   0.0031 H              1 <1>                0.0000
      5 H5           0.4823  -1.0700  -0.8342 H              1 <1>                0.0000
      6 H6           1.0127   1.1016  -0.0037 H              1 <1>                0.0000
      7 H7          -0.5370   1.0854  -0.8791 H              1 <1>                0.0000
      8 H8          -0.5200   1.0758   0.9008 H              1 <1>                0.0000
@<TRIPOS>BOND
    1    1    2 1     
    2    1    6 1     
    3    1    7 1     
    4    1    8 1     
    5    2    3 1     
    6    2    4 1     
    7    2    5 1     
@<TRIPOS>SUBSTRUCTURE
      1 ****           1
@<TRIPOS>SET
DONOR_HYDROGENS      STATIC     ATOMS    <user>   **** ""
3 3 4 5
ATOM$RED        STATIC     ATOMS    COLORGROUP SYSTEM
3 3 4 5
