#       Name:                3QO
#       Creating user name   gbret
#       Creation time:       Thu Sep  8 23:10:27 2016


#       File generated by GOLD software.
#

@<TRIPOS>MOLECULE
3QO
    24    25     1
SMALL
NO_CHARGES


@<TRIPOS>ATOM
      1 C1          -1.1139   0.9779   0.0159 C.3            1 <1>                0.0000
      2 C2          -1.0934  -0.5290   0.0076 C.ar           1 <1>                0.0000
      3 C3          -1.0898  -1.2136  -1.1933 C.ar           1 <1>                0.0000
      4 C4          -1.0710  -2.5958  -1.2009 C.ar           1 <1>                0.0000
      5 C5          -1.0555  -3.2934  -0.0076 C.ar           1 <1>                0.0000
      6 C6          -1.0582  -2.6088   1.1933 C.ar           1 <1>                0.0000
      7 C7          -1.0726  -1.2265   1.2009 C.ar           1 <1>                0.0000
      8 C8           0.2999   1.4995   0.0052 C.ar           1 <1>                0.0000
      9 C9           0.9792   1.7333   1.1911 C.ar           1 <1>                0.0000
     10 C10          2.2747   2.2120   1.1421 C.ar           1 <1>                0.0000
     11 N11          2.8640   2.4461  -0.0142 N.ar           1 <1>                0.0000
     12 C12          2.2487   2.2353  -1.1613 C.ar           1 <1>                0.0000
     13 C13          0.9544   1.7515  -1.1908 C.ar           1 <1>                0.0000
     14 H14         -1.6410   1.3390  -0.8672 H              1 <1>                0.0000
     15 H15         -1.6241   1.3294   0.9127 H              1 <1>                0.0000
     16 H16         -1.1019  -0.6685  -2.1256 H              1 <1>                0.0000
     17 H17         -1.0689  -3.1306  -2.1392 H              1 <1>                0.0000
     18 H18         -1.0415  -4.3733  -0.0135 H              1 <1>                0.0000
     19 H19         -1.0464  -3.1538   2.1256 H              1 <1>                0.0000
     20 H20         -1.0748  -0.6916   2.1391 H              1 <1>                0.0000
     21 H21          0.5017   1.5442   2.1412 H              1 <1>                0.0000
     22 H22          2.8107   2.3967   2.0613 H              1 <1>                0.0000
     23 H23          2.7637   2.4390  -2.0885 H              1 <1>                0.0000
     24 H24          0.4559   1.5806  -2.1335 H              1 <1>                0.0000
@<TRIPOS>BOND
    1    1    2 1     
    2    1    8 1     
    3    1   14 1     
    4    1   15 1     
    5    2    7 ar    
    6    2    3 ar    
    7    3    4 ar    
    8    3   16 1     
    9    4    5 ar    
   10    4   17 1     
   11    5    6 ar    
   12    5   18 1     
   13    6    7 ar    
   14    6   19 1     
   15    7   20 1     
   16    8   13 ar    
   17    8    9 ar    
   18    9   10 ar    
   19    9   21 1     
   20   10   11 ar    
   21   10   22 1     
   22   11   12 ar    
   23   12   13 ar    
   24   12   23 1     
   25   13   24 1     
@<TRIPOS>SUBSTRUCTURE
      1 ****           1
