#       Name:                3RK
#       Creating user name   gbret
#       Creation time:       Thu Sep  8 23:12:31 2016


#       File generated by GOLD software.
#

@<TRIPOS>MOLECULE
3RK
    25    25     1
SMALL
NO_CHARGES


@<TRIPOS>ATOM
      1 O1           0.1566   2.8553  -0.4871 O.3            1 <1>                0.0000
      2 C2           0.1760   1.4264  -0.4950 C.3            1 <1>                0.0000
      3 C3           0.9486   0.9372   0.7043 C.3            1 <1>                0.0000
      4 N4           1.7046  -0.2671   0.3089 N.4            1 <1>                0.0000
      5 H5           2.0406  -0.1430  -0.6343 H              1 <1>                0.0000
      6 H6           2.4982  -0.3675   0.9239 H              1 <1>                0.0000
      7 C7           0.9475  -1.4387   0.3639 C.3            1 <1>                0.0000
      8 C8          -0.2399  -1.4068  -0.6209 C.3            1 <1>                0.0000
      9 O9          -0.7136  -2.7368  -0.8418 O.3            1 <1>                0.0000
     10 C10         -1.3457  -0.5691  -0.0313 C.3            1 <1>                0.0000
     11 O11         -1.2553  -0.6202   1.3939 O.3            1 <1>                0.0000
     12 C12         -1.2725   0.9032  -0.4840 C.3            1 <1>                0.0000
     13 O13         -2.0501   1.7039   0.4084 O.3            1 <1>                0.0000
     14 H14          1.0345   3.2606  -0.4933 H              1 <1>                0.0000
     15 H15          0.6724   1.0820  -1.4022 H              1 <1>                0.0000
     16 H16          1.6395   1.7118   1.0372 H              1 <1>                0.0000
     17 H17          0.2578   0.6893   1.5102 H              1 <1>                0.0000
     18 H18          1.5879  -2.2862   0.1196 H              1 <1>                0.0000
     19 H19          0.5647  -1.5661   1.3765 H              1 <1>                0.0000
     20 H20          0.0830  -0.9728  -1.5673 H              1 <1>                0.0000
     21 H21         -0.0504  -3.3336  -1.2147 H              1 <1>                0.0000
     22 H22         -2.3054  -0.9843  -0.3389 H              1 <1>                0.0000
     23 H23         -1.3378  -1.5107   1.7616 H              1 <1>                0.0000
     24 H24         -1.6882   0.9871  -1.4881 H              1 <1>                0.0000
     25 H25         -2.0541   2.6458   0.1895 H              1 <1>                0.0000
@<TRIPOS>BOND
    1    1    2 1     
    2    1   14 1     
    3    2   12 1     
    4    2    3 1     
    5    2   15 1     
    6    3    4 1     
    7    3   16 1     
    8    3   17 1     
    9    4    5 1     
   10    4    6 1     
   11    4    7 1     
   12    7    8 1     
   13    7   18 1     
   14    7   19 1     
   15    8    9 1     
   16    8   10 1     
   17    8   20 1     
   18    9   21 1     
   19   10   11 1     
   20   10   12 1     
   21   10   22 1     
   22   11   23 1     
   23   12   13 1     
   24   12   24 1     
   25   13   25 1     
@<TRIPOS>SUBSTRUCTURE
      1 ****           1
@<TRIPOS>SET
DONOR_HYDROGENS      STATIC     ATOMS    <user>   **** ""
6 14 5 6 21 23 25
ATOM$RED        STATIC     ATOMS    COLORGROUP SYSTEM
6 14 5 6 21 23 25
