#       Name:                3RP
#       Creating user name   gbret
#       Creation time:       Thu Sep  8 23:12:50 2016


#       File generated by GOLD software.
#

@<TRIPOS>MOLECULE
3RP
    29    30     1
SMALL
NO_CHARGES


@<TRIPOS>ATOM
      1 C1          -1.9774   0.9051   3.4603 C.3            1 <1>                0.0000
      2 O2          -1.9138  -0.5224   3.4784 O.3            1 <1>                0.0000
      3 C3          -1.2666  -1.1245   2.4455 C.ar           1 <1>                0.0000
      4 C4          -0.7013  -0.3569   1.4416 C.ar           1 <1>                0.0000
      5 C5          -0.0386  -0.9771   0.3843 C.ar           1 <1>                0.0000
      6 C6           0.0517  -2.3688   0.3432 C.ar           1 <1>                0.0000
      7 Cl7          0.8765  -3.1472  -0.9712 Cl             1 <1>                0.0000
      8 C8          -0.5152  -3.1270   1.3490 C.ar           1 <1>                0.0000
      9 C9          -1.1679  -2.5095   2.4010 C.ar           1 <1>                0.0000
     10 Cl10        -1.8775  -3.4687   3.6619 Cl             1 <1>                0.0000
     11 C11          0.5683  -0.1605  -0.6940 C.ar           1 <1>                0.0000
     12 C12         -0.1548   0.8754  -1.2922 C.ar           1 <1>                0.0000
     13 C13          0.4531   1.6104  -2.2938 C.ar           1 <1>                0.0000
     14 C14         -0.2867   2.7371  -2.9677 C.3            1 <1>                0.0000
     15 N15          1.6921   1.3137  -2.6539 N.ar           1 <1>                0.0000
     16 C16          2.3544   0.3260  -2.0695 C.ar           1 <1>                0.0000
     17 N17          3.6483   0.0488  -2.4754 N.pl3          1 <1>                0.0000
     18 N18          1.8122  -0.3990  -1.1036 N.ar           1 <1>                0.0000
     19 H19         -0.9670   1.3139   3.4696 H              1 <1>                0.0000
     20 H20         -2.4943   1.2343   2.5590 H              1 <1>                0.0000
     21 H21         -2.5194   1.2558   4.3386 H              1 <1>                0.0000
     22 H22         -0.7742   0.7201   1.4776 H              1 <1>                0.0000
     23 H23         -0.4449  -4.2042   1.3165 H              1 <1>                0.0000
     24 H24         -1.1647   1.0965  -0.9799 H              1 <1>                0.0000
     25 H25         -0.1033   3.6662  -2.4281 H              1 <1>                0.0000
     26 H26          0.0632   2.8384  -3.9951 H              1 <1>                0.0000
     27 H27         -1.3552   2.5216  -2.9674 H              1 <1>                0.0000
     28 H28          4.0590   0.5748  -3.1793 H              1 <1>                0.0000
     29 H29          4.1444  -0.6716  -2.0560 H              1 <1>                0.0000
@<TRIPOS>BOND
    1    1    2 1     
    2    1   19 1     
    3    1   20 1     
    4    1   21 1     
    5    2    3 1     
    6    3    9 ar    
    7    3    4 ar    
    8    4    5 ar    
    9    4   22 1     
   10    5    6 ar    
   11    5   11 1     
   12    6    7 1     
   13    6    8 ar    
   14    8    9 ar    
   15    8   23 1     
   16    9   10 1     
   17   11   18 ar    
   18   11   12 ar    
   19   12   13 ar    
   20   12   24 1     
   21   13   14 1     
   22   13   15 ar    
   23   14   25 1     
   24   14   26 1     
   25   14   27 1     
   26   15   16 ar    
   27   16   17 1     
   28   16   18 ar    
   29   17   28 1     
   30   17   29 1     
@<TRIPOS>SUBSTRUCTURE
      1 ****           1
@<TRIPOS>SET
DONOR_HYDROGENS      STATIC     ATOMS    <user>   **** ""
2 28 29
ATOM$RED        STATIC     ATOMS    COLORGROUP SYSTEM
2 28 29
