#       Name:                3SM
#       Creating user name   gbret
#       Creation time:       Thu Sep  8 23:14:49 2016


#       File generated by GOLD software.
#

@<TRIPOS>MOLECULE
3SM
    49    52     1
SMALL
NO_CHARGES


@<TRIPOS>ATOM
      1 C1          -3.6987   4.1152   4.9746 C.3            1 <1>                0.0000
      2 N2          -3.6788   2.6503   4.9665 N.pl3          1 <1>                0.0000
      3 C3          -3.0787   1.9705   3.9166 C.ar           1 <1>                0.0000
      4 N4          -2.5239   2.6523   2.9327 N.ar           1 <1>                0.0000
      5 C5          -1.9328   2.0573   1.8978 C.ar           1 <1>                0.0000
      6 N6          -1.3012   2.5510   0.7805 N.pl3          1 <1>                0.0000
      7 H7          -1.1854   3.4902   0.5671 H              1 <1>                0.0000
      8 C8          -0.8589   1.4937   0.0123 C.2            1 <1>                0.0000
      9 C9          -1.1983   0.3305   0.6218 C.2            1 <1>                0.0000
     10 C10         -1.8799   0.6558   1.8187 C.ar           1 <1>                0.0000
     11 C11         -2.4606  -0.1088   2.8483 C.ar           1 <1>                0.0000
     12 N12         -2.5999  -1.4480   3.1069 N.pl3          1 <1>                0.0000
     13 C13         -2.1169  -2.5484   2.2690 C.3            1 <1>                0.0000
     14 C14         -3.2701  -1.5666   4.2873 C.2            1 <1>                0.0000
     15 N15         -3.5456  -0.3861   4.7603 N.2            1 <1>                0.0000
     16 C16         -3.0652   0.5631   3.9186 C.ar           1 <1>                0.0000
     17 C17         -0.1330   1.6099  -1.2686 C.ar           1 <1>                0.0000
     18 C18          0.1603   2.8730  -1.7869 C.ar           1 <1>                0.0000
     19 C19          0.8406   2.9647  -2.9873 C.ar           1 <1>                0.0000
     20 C20          1.2071   1.7914  -3.6336 C.ar           1 <1>                0.0000
     21 C21          0.8850   0.5736  -3.0646 C.ar           1 <1>                0.0000
     22 C22          1.2819  -0.7013  -3.7634 C.3            1 <1>                0.0000
     23 N23          2.5572  -1.1780  -3.2225 N.am           1 <1>                0.0000
     24 C24          3.1107  -2.3102  -3.7001 C.2            1 <1>                0.0000
     25 O25          2.5529  -2.9345  -4.5777 O.2            1 <1>                0.0000
     26 C26          4.4225  -2.8006  -3.1437 C.3            1 <1>                0.0000
     27 O27          4.7989  -4.0095  -3.8063 O.3            1 <1>                0.0000
     28 C28          6.0357  -4.5613  -3.3505 C.3            1 <1>                0.0000
     29 N29          0.2408   0.5118  -1.9168 N.ar           1 <1>                0.0000
     30 H30         -2.6761   4.4925   4.9668 H              1 <1>                0.0000
     31 H31         -4.2259   4.4763   4.0915 H              1 <1>                0.0000
     32 H32         -4.2089   4.4667   5.8714 H              1 <1>                0.0000
     33 H33         -4.0853   2.1558   5.6953 H              1 <1>                0.0000
     34 H34         -0.9871  -0.6645   0.2589 H              1 <1>                0.0000
     35 H35         -1.1039  -2.8161   2.5692 H              1 <1>                0.0000
     36 H36         -2.7717  -3.4114   2.3897 H              1 <1>                0.0000
     37 H37         -2.1158  -2.2364   1.2246 H              1 <1>                0.0000
     38 H38         -3.5339  -2.5012   4.7598 H              1 <1>                0.0000
     39 H39         -0.1401   3.7654  -1.2580 H              1 <1>                0.0000
     40 H40          1.0812   3.9276  -3.4131 H              1 <1>                0.0000
     41 H41          1.7389   1.8301  -4.5728 H              1 <1>                0.0000
     42 H42          0.5137  -1.4578  -3.6032 H              1 <1>                0.0000
     43 H43          1.3883  -0.5121  -4.8316 H              1 <1>                0.0000
     44 H44          3.0032  -0.6787  -2.5206 H              1 <1>                0.0000
     45 H45          5.1907  -2.0441  -3.3039 H              1 <1>                0.0000
     46 H46          4.3161  -2.9898  -2.0755 H              1 <1>                0.0000
     47 H47          6.8374  -3.8413  -3.5151 H              1 <1>                0.0000
     48 H48          5.9628  -4.7870  -2.2867 H              1 <1>                0.0000
     49 H49          6.2505  -5.4765  -3.9022 H              1 <1>                0.0000
@<TRIPOS>BOND
    1    1    2 1     
    2    1   30 1     
    3    1   31 1     
    4    1   32 1     
    5    2    3 1     
    6    2   33 1     
    7    3   16 ar    
    8    3    4 ar    
    9    4    5 ar    
   10    5   10 ar    
   11    5    6 1     
   12    6    7 1     
   13    6    8 1     
   14    8    9 2     
   15    8   17 1     
   16    9   10 1     
   17    9   34 1     
   18   10   11 ar    
   19   11   16 ar    
   20   11   12 1     
   21   12   13 1     
   22   12   14 1     
   23   13   35 1     
   24   13   36 1     
   25   13   37 1     
   26   14   15 2     
   27   14   38 1     
   28   15   16 1     
   29   17   29 ar    
   30   17   18 ar    
   31   18   19 ar    
   32   18   39 1     
   33   19   20 ar    
   34   19   40 1     
   35   20   21 ar    
   36   20   41 1     
   37   21   22 1     
   38   21   29 ar    
   39   22   23 1     
   40   22   42 1     
   41   22   43 1     
   42   23   24 am    
   43   23   44 1     
   44   24   25 2     
   45   24   26 1     
   46   26   27 1     
   47   26   45 1     
   48   26   46 1     
   49   27   28 1     
   50   28   47 1     
   51   28   48 1     
   52   28   49 1     
@<TRIPOS>SUBSTRUCTURE
      1 ****           1
@<TRIPOS>SET
DONOR_HYDROGENS      STATIC     ATOMS    <user>   **** ""
3 33 7 44
ATOM$RED        STATIC     ATOMS    COLORGROUP SYSTEM
3 33 7 44
