#       Name:                3TA
#       Creating user name   gbret
#       Creation time:       Thu Sep  8 23:16:23 2016


#       File generated by GOLD software.
#

@<TRIPOS>MOLECULE
3TA
    57    60     1
SMALL
NO_CHARGES


@<TRIPOS>ATOM
      1 C1           2.4103   6.2309  -2.7725 C.3            1 <1>                0.0000
      2 N2           2.4152   4.7620  -2.7884 N.4            1 <1>                0.0000
      3 H3           2.8904   4.4362  -3.6167 H              1 <1>                0.0000
      4 C4           3.1116   4.2617  -1.5956 C.3            1 <1>                0.0000
      5 C5           1.0319   4.2677  -2.7911 C.3            1 <1>                0.0000
      6 C6           1.0349   2.7444  -2.9333 C.3            1 <1>                0.0000
      7 C7          -0.4059   2.2296  -2.9362 C.3            1 <1>                0.0000
      8 C8          -0.4030   0.7291  -3.0763 C.ar           1 <1>                0.0000
      9 C9          -0.4330   0.1436  -4.3286 C.ar           1 <1>                0.0000
     10 N10         -0.4307  -1.1680  -4.4636 N.ar           1 <1>                0.0000
     11 C11         -0.3996  -1.9736  -3.4207 C.ar           1 <1>                0.0000
     12 C12         -0.3985  -3.4659  -3.6306 C.3            1 <1>                0.0000
     13 C13         -0.3673  -1.4608  -2.1305 C.ar           1 <1>                0.0000
     14 N14         -0.3338  -2.3187  -1.0267 N.pl3          1 <1>                0.0000
     15 C15         -0.8012  -1.8840   0.2029 C.ar           1 <1>                0.0000
     16 N16         -1.3884  -0.6986   0.2863 N.ar           1 <1>                0.0000
     17 C17         -1.8448  -0.2495   1.4453 C.ar           1 <1>                0.0000
     18 C18         -1.7009  -1.0357   2.5758 C.ar           1 <1>                0.0000
     19 C19         -2.2012  -0.5297   3.9010 C.3            1 <1>                0.0000
     20 C20         -1.0340  -0.3897   4.8390 C.2            1 <1>                0.0000
     21 S21         -0.6447   1.0623   5.3840 S.2            1 <1>                0.0000
     22 N22         -0.3177  -1.4387   5.2277 N.am           1 <1>                0.0000
     23 C23         -0.5483  -2.7604   4.8864 C.ar           1 <1>                0.0000
     24 C24         -0.4104  -3.7056   5.9081 C.ar           1 <1>                0.0000
     25 C25         -0.6138  -5.0457   5.6606 C.ar           1 <1>                0.0000
     26 Cl26        -0.4380  -6.2014   6.9440 Cl             1 <1>                0.0000
     27 C27         -0.9593  -5.4714   4.3875 C.ar           1 <1>                0.0000
     28 C28         -1.1010  -4.5544   3.3726 C.ar           1 <1>                0.0000
     29 C29         -0.8994  -3.1860   3.6114 C.ar           1 <1>                0.0000
     30 C30         -1.0886  -2.2742   2.4631 C.ar           1 <1>                0.0000
     31 N31         -0.6538  -2.6653   1.2590 N.ar           1 <1>                0.0000
     32 C32         -0.3643  -0.0792  -1.9523 C.ar           1 <1>                0.0000
     33 H33          3.4368   6.5976  -2.7705 H              1 <1>                0.0000
     34 H34          1.8936   6.6021  -3.6576 H              1 <1>                0.0000
     35 H35          1.8970   6.5829  -1.8777 H              1 <1>                0.0000
     36 H36          3.1152   3.1718  -1.6074 H              1 <1>                0.0000
     37 H37          4.1380   4.6285  -1.5936 H              1 <1>                0.0000
     38 H38          2.5982   4.6137  -0.7008 H              1 <1>                0.0000
     39 H39          0.5453   4.5444  -1.8558 H              1 <1>                0.0000
     40 H40          0.4898   4.7096  -3.6272 H              1 <1>                0.0000
     41 H41          1.5214   2.4677  -3.8687 H              1 <1>                0.0000
     42 H42          1.5769   2.3025  -2.0973 H              1 <1>                0.0000
     43 H43         -0.8925   2.5062  -2.0009 H              1 <1>                0.0000
     44 H44         -0.9480   2.6715  -3.7723 H              1 <1>                0.0000
     45 H45         -0.4591   0.7694  -5.2084 H              1 <1>                0.0000
     46 H46          0.6291  -3.8211  -3.7084 H              1 <1>                0.0000
     47 H47         -0.8880  -3.9519  -2.7867 H              1 <1>                0.0000
     48 H48         -0.9357  -3.7041  -4.5486 H              1 <1>                0.0000
     49 H49          0.0166  -3.2182  -1.1219 H              1 <1>                0.0000
     50 H50         -2.3224   0.7171   1.5080 H              1 <1>                0.0000
     51 H51         -2.6787   0.4406   3.7648 H              1 <1>                0.0000
     52 H52         -2.9194  -1.2375   4.3147 H              1 <1>                0.0000
     53 H53          0.4404  -1.2615   5.8064 H              1 <1>                0.0000
     54 H54         -0.1409  -3.3813   6.9024 H              1 <1>                0.0000
     55 H55         -1.1173  -6.5220   4.1931 H              1 <1>                0.0000
     56 H56         -1.3696  -4.8905   2.3820 H              1 <1>                0.0000
     57 H57         -0.3396   0.3509  -0.9620 H              1 <1>                0.0000
@<TRIPOS>BOND
    1    1    2 1     
    2    1   33 1     
    3    1   34 1     
    4    1   35 1     
    5    2    3 1     
    6    2    4 1     
    7    2    5 1     
    8    4   36 1     
    9    4   37 1     
   10    4   38 1     
   11    5    6 1     
   12    5   39 1     
   13    5   40 1     
   14    6    7 1     
   15    6   41 1     
   16    6   42 1     
   17    7    8 1     
   18    7   43 1     
   19    7   44 1     
   20    8   32 ar    
   21    8    9 ar    
   22    9   10 ar    
   23    9   45 1     
   24   10   11 ar    
   25   11   12 1     
   26   11   13 ar    
   27   12   46 1     
   28   12   47 1     
   29   12   48 1     
   30   13   14 1     
   31   13   32 ar    
   32   14   15 1     
   33   14   49 1     
   34   15   31 ar    
   35   15   16 ar    
   36   16   17 ar    
   37   17   18 ar    
   38   17   50 1     
   39   18   30 ar    
   40   18   19 1     
   41   19   20 1     
   42   19   51 1     
   43   19   52 1     
   44   20   21 2     
   45   20   22 am    
   46   22   23 1     
   47   22   53 1     
   48   23   29 ar    
   49   23   24 ar    
   50   24   25 ar    
   51   24   54 1     
   52   25   26 1     
   53   25   27 ar    
   54   27   28 ar    
   55   27   55 1     
   56   28   29 ar    
   57   28   56 1     
   58   29   30 1     
   59   30   31 ar    
   60   32   57 1     
@<TRIPOS>SUBSTRUCTURE
      1 ****           1
@<TRIPOS>SET
DONOR_HYDROGENS      STATIC     ATOMS    <user>   **** ""
3 3 49 53
ATOM$RED        STATIC     ATOMS    COLORGROUP SYSTEM
3 3 49 53
