#       Name:                3U9
#       Creating user name   gbret
#       Creation time:       Thu Sep  8 23:18:46 2016


#       File generated by GOLD software.
#

@<TRIPOS>MOLECULE
3U9
    43    45     1
SMALL
NO_CHARGES


@<TRIPOS>ATOM
      1 C1           1.8221   4.0159  -0.8317 C.3            1 <1>                0.0000
      2 O2           1.5292   2.6702  -0.4504 O.3            1 <1>                0.0000
      3 C3           2.2174   2.1649   0.6075 C.ar           1 <1>                0.0000
      4 C4           3.1509   2.9505   1.2677 C.ar           1 <1>                0.0000
      5 C5           3.8495   2.4357   2.3424 C.ar           1 <1>                0.0000
      6 C6           3.6185   1.1361   2.7608 C.ar           1 <1>                0.0000
      7 F7           4.3024   0.6338   3.8120 F              1 <1>                0.0000
      8 C8           2.6870   0.3511   2.1031 C.ar           1 <1>                0.0000
      9 C9           1.9829   0.8653   1.0311 C.ar           1 <1>                0.0000
     10 C10          0.9690   0.0105   0.3154 C.3            1 <1>                0.0000
     11 C11          1.6244  -0.6483  -0.9001 C.3            1 <1>                0.0000
     12 O12          0.4868  -1.0004   1.2029 O.3            1 <1>                0.0000
     13 C13         -0.7450  -1.5149   0.9419 C.ar           1 <1>                0.0000
     14 C14         -1.4326  -1.1426  -0.2005 C.ar           1 <1>                0.0000
     15 C15         -2.6982  -1.6993  -0.4260 C.ar           1 <1>                0.0000
     16 C16         -3.2164  -2.6012   0.5005 C.ar           1 <1>                0.0000
     17 N17         -2.5305  -2.9308   1.5770 N.ar           1 <1>                0.0000
     18 C18         -1.3299  -2.4298   1.8202 C.ar           1 <1>                0.0000
     19 N19         -0.6470  -2.8101   2.9715 N.pl3          1 <1>                0.0000
     20 C20         -3.4743  -1.3337  -1.6319 C.2            1 <1>                0.0000
     21 C21         -4.8233  -1.4584  -1.8141 C.2            1 <1>                0.0000
     22 N22         -5.0803  -1.0069  -3.0442 N.2            1 <1>                0.0000
     23 N23         -3.9828  -0.6274  -3.5954 N.2            1 <1>                0.0000
     24 N24         -2.9917  -0.7961  -2.7918 N.pl3          1 <1>                0.0000
     25 C25         -1.5902  -0.4765  -3.0746 C.3            1 <1>                0.0000
     26 H26          2.8750   4.0960  -1.1021 H              1 <1>                0.0000
     27 H27          1.2053   4.2937  -1.6865 H              1 <1>                0.0000
     28 H28          1.6093   4.6845   0.0025 H              1 <1>                0.0000
     29 H29          3.3315   3.9641   0.9414 H              1 <1>                0.0000
     30 H30          4.5765   3.0471   2.8564 H              1 <1>                0.0000
     31 H31          2.5077  -0.6623   2.4305 H              1 <1>                0.0000
     32 H32          0.1365   0.6326  -0.0133 H              1 <1>                0.0000
     33 H33          2.4568  -1.2704  -0.5714 H              1 <1>                0.0000
     34 H34          0.8910  -1.2666  -1.4178 H              1 <1>                0.0000
     35 H35          1.9921   0.1228  -1.5770 H              1 <1>                0.0000
     36 H36         -1.0042  -0.4403  -0.9002 H              1 <1>                0.0000
     37 H37         -4.1914  -3.0351   0.3351 H              1 <1>                0.0000
     38 H38          0.2297  -2.4402   3.1599 H              1 <1>                0.0000
     39 H39         -1.0477  -3.4451   3.5857 H              1 <1>                0.0000
     40 H40         -5.5391  -1.8456  -1.1041 H              1 <1>                0.0000
     41 H41         -1.3558   0.5116  -2.6786 H              1 <1>                0.0000
     42 H42         -0.9460  -1.2189  -2.6034 H              1 <1>                0.0000
     43 H43         -1.4260  -0.4845  -4.1521 H              1 <1>                0.0000
@<TRIPOS>BOND
    1    1    2 1     
    2    1   26 1     
    3    1   27 1     
    4    1   28 1     
    5    2    3 1     
    6    3    9 ar    
    7    3    4 ar    
    8    4    5 ar    
    9    4   29 1     
   10    5    6 ar    
   11    5   30 1     
   12    6    7 1     
   13    6    8 ar    
   14    8    9 ar    
   15    8   31 1     
   16    9   10 1     
   17   10   11 1     
   18   10   12 1     
   19   10   32 1     
   20   11   33 1     
   21   11   34 1     
   22   11   35 1     
   23   12   13 1     
   24   13   18 ar    
   25   13   14 ar    
   26   14   15 ar    
   27   14   36 1     
   28   15   16 ar    
   29   15   20 1     
   30   16   17 ar    
   31   16   37 1     
   32   17   18 ar    
   33   18   19 1     
   34   19   38 1     
   35   19   39 1     
   36   20   24 1     
   37   20   21 2     
   38   21   22 1     
   39   21   40 1     
   40   22   23 2     
   41   23   24 1     
   42   24   25 1     
   43   25   41 1     
   44   25   42 1     
   45   25   43 1     
@<TRIPOS>SUBSTRUCTURE
      1 ****           1
@<TRIPOS>SET
DONOR_HYDROGENS      STATIC     ATOMS    <user>   **** ""
2 38 39
ATOM$RED        STATIC     ATOMS    COLORGROUP SYSTEM
2 38 39
