#       Name:                3X2
#       Creating user name   gbret
#       Creation time:       Thu Sep  8 23:25:03 2016


#       File generated by GOLD software.
#

@<TRIPOS>MOLECULE
3X2
    35    37     1
SMALL
NO_CHARGES


@<TRIPOS>ATOM
      1 O1          -2.3491  -2.4127  -1.1602 O.co2          1 <1>                0.0000
      2 C2          -2.8786  -2.1129  -0.0985 C.2            1 <1>                0.0000
      3 O3          -2.3379  -2.4065   0.9592 O.co2          1 <1>                0.0000
      4 C4          -4.1619  -1.3946  -0.0938 C.ar           1 <1>                0.0000
      5 C5          -5.3640  -2.1000  -0.1914 C.ar           1 <1>                0.0000
      6 C6          -6.5634  -1.4213  -0.1860 C.ar           1 <1>                0.0000
      7 C7          -6.5897  -0.0383  -0.0846 C.ar           1 <1>                0.0000
      8 C8          -5.4168   0.6791   0.0127 C.ar           1 <1>                0.0000
      9 C9          -4.1890   0.0130   0.0152 C.ar           1 <1>                0.0000
     10 C10         -2.9345   0.7722   0.1188 C.2            1 <1>                0.0000
     11 N11         -1.7926   0.1581   0.0184 N.2            1 <1>                0.0000
     12 N12         -0.5970   0.8817   0.1171 N.pl3          1 <1>                0.0000
     13 C13          0.6190   0.2277   0.0101 C.2            1 <1>                0.0000
     14 N14          1.7845   0.7931   0.0907 N.2            1 <1>                0.0000
     15 C15          2.8441   0.0071  -0.0349 C.2            1 <1>                0.0000
     16 C16          2.5754  -1.2962  -0.2330 C.2            1 <1>                0.0000
     17 S17          0.8253  -1.5019  -0.2489 S.3            1 <1>                0.0000
     18 C18          4.2307   0.5284   0.0373 C.ar           1 <1>                0.0000
     19 C19          5.3126  -0.3386  -0.1072 C.ar           1 <1>                0.0000
     20 C20          6.6006   0.1520  -0.0396 C.ar           1 <1>                0.0000
     21 C21          6.8200   1.5016   0.1717 C.ar           1 <1>                0.0000
     22 C22          5.7512   2.3672   0.3165 C.ar           1 <1>                0.0000
     23 C23          4.4573   1.8889   0.2444 C.ar           1 <1>                0.0000
     24 Cl24         3.1164   2.9763   0.4262 Cl             1 <1>                0.0000
     25 H25         -5.3533  -3.1770  -0.2714 H              1 <1>                0.0000
     26 H26         -7.4901  -1.9706  -0.2616 H              1 <1>                0.0000
     27 H27         -7.5368   0.4807  -0.0823 H              1 <1>                0.0000
     28 H28         -5.4472   1.7558   0.0909 H              1 <1>                0.0000
     29 H29         -2.9612   1.8400   0.2783 H              1 <1>                0.0000
     30 H30         -0.6209   1.8408   0.2603 H              1 <1>                0.0000
     31 H31          3.3063  -2.0816  -0.3572 H              1 <1>                0.0000
     32 H32          5.1430  -1.3924  -0.2715 H              1 <1>                0.0000
     33 H33          7.4393  -0.5192  -0.1515 H              1 <1>                0.0000
     34 H34          7.8300   1.8805   0.2242 H              1 <1>                0.0000
     35 H35          5.9285   3.4197   0.4816 H              1 <1>                0.0000
@<TRIPOS>BOND
    1    1    2 ar    
    2    2    3 ar    
    3    2    4 1     
    4    4    9 ar    
    5    4    5 ar    
    6    5    6 ar    
    7    5   25 1     
    8    6    7 ar    
    9    6   26 1     
   10    7    8 ar    
   11    7   27 1     
   12    8    9 ar    
   13    8   28 1     
   14    9   10 1     
   15   10   11 2     
   16   10   29 1     
   17   11   12 1     
   18   12   13 1     
   19   12   30 1     
   20   13   17 1     
   21   13   14 2     
   22   14   15 1     
   23   15   16 2     
   24   15   18 1     
   25   16   17 1     
   26   16   31 1     
   27   18   23 ar    
   28   18   19 ar    
   29   19   20 ar    
   30   19   32 1     
   31   20   21 ar    
   32   20   33 1     
   33   21   22 ar    
   34   21   34 1     
   35   22   23 ar    
   36   22   35 1     
   37   23   24 1     
@<TRIPOS>SUBSTRUCTURE
      1 ****           1
@<TRIPOS>SET
DONOR_HYDROGENS      STATIC     ATOMS    <user>   **** ""
1 30
ATOM$RED        STATIC     ATOMS    COLORGROUP SYSTEM
1 30
