#       Name:                3Z5
#       Creating user name   gbret
#       Creation time:       Thu Sep  8 23:29:55 2016


#       File generated by GOLD software.
#

@<TRIPOS>MOLECULE
3Z5
    68    73     1
SMALL
NO_CHARGES


@<TRIPOS>ATOM
      1 C1           1.6986   9.7407  -0.8555 C.3            1 <1>                0.0000
      2 C2           1.2721   8.2964  -0.7989 C.ar           1 <1>                0.0000
      3 C3           0.9934   7.6248  -1.9873 C.ar           1 <1>                0.0000
      4 C4           0.6060   6.3156  -1.9549 C.ar           1 <1>                0.0000
      5 C5           0.5014   5.6841  -0.7001 C.ar           1 <1>                0.0000
      6 C6           0.1098   4.3419  -0.5919 C.ar           1 <1>                0.0000
      7 C7           0.0198   3.7592   0.6590 C.ar           1 <1>                0.0000
      8 C8           0.3169   4.5025   1.8133 C.ar           1 <1>                0.0000
      9 C9           0.6971   5.8030   1.7275 C.ar           1 <1>                0.0000
     10 C10          0.7998   6.4263   0.4701 C.ar           1 <1>                0.0000
     11 N11          1.1784   7.7042   0.3669 N.ar           1 <1>                0.0000
     12 C12         -0.3934   2.3407   0.7827 C.ar           1 <1>                0.0000
     13 C13         -1.5918   2.0151   1.4113 C.ar           1 <1>                0.0000
     14 C14         -2.4686   3.1077   1.9667 C.3            1 <1>                0.0000
     15 C15         -1.9817   0.6934   1.5280 C.ar           1 <1>                0.0000
     16 C16         -1.1891  -0.3169   1.0249 C.ar           1 <1>                0.0000
     17 C17          0.0182  -0.0130   0.3909 C.ar           1 <1>                0.0000
     18 C18          0.8656  -1.0946  -0.1472 C.2            1 <1>                0.0000
     19 O19          1.8671  -0.8235  -0.7848 O.2            1 <1>                0.0000
     20 C20          0.5022  -2.4941   0.0856 C.2            1 <1>                0.0000
     21 C21          0.1233  -3.4325  -0.8789 C.2            1 <1>                0.0000
     22 C22          0.0165  -3.1904  -2.3290 C.ar           1 <1>                0.0000
     23 C23          0.5735  -4.0974  -3.2355 C.ar           1 <1>                0.0000
     24 C24          0.4692  -3.8644  -4.5906 C.ar           1 <1>                0.0000
     25 C25         -0.1846  -2.7359  -5.0540 C.ar           1 <1>                0.0000
     26 C26         -0.7386  -1.8335  -4.1627 C.ar           1 <1>                0.0000
     27 C27         -0.6474  -2.0558  -2.8048 C.ar           1 <1>                0.0000
     28 N28         -0.1295  -4.6110  -0.2418 N.pl3          1 <1>                0.0000
     29 C29         -0.5552  -5.8501  -0.8974 C.3            1 <1>                0.0000
     30 N30          0.0791  -4.4578   1.1317 N.am           1 <1>                0.0000
     31 C31         -0.0844  -5.4589   2.0945 C.ar           1 <1>                0.0000
     32 C32         -0.8227  -5.2057   3.2433 C.ar           1 <1>                0.0000
     33 C33         -0.9821  -6.1965   4.1922 C.ar           1 <1>                0.0000
     34 C34         -0.4073  -7.4393   3.9996 C.ar           1 <1>                0.0000
     35 C35          0.3288  -7.6945   2.8571 C.ar           1 <1>                0.0000
     36 C36          0.4865  -6.7102   1.9012 C.ar           1 <1>                0.0000
     37 C37          0.4698  -3.1913   1.3780 C.2            1 <1>                0.0000
     38 O38          0.7365  -2.7141   2.4654 O.2            1 <1>                0.0000
     39 C39          0.4180   1.3252   0.2623 C.ar           1 <1>                0.0000
     40 N40          1.6141   1.6395  -0.3655 N.pl3          1 <1>                0.0000
     41 H41          2.7840   9.7959  -0.9389 H              1 <1>                0.0000
     42 H42          1.2427  10.2205  -1.7215 H              1 <1>                0.0000
     43 H43          1.3777  10.2501   0.0531 H              1 <1>                0.0000
     44 H44          1.0832   8.1389  -2.9329 H              1 <1>                0.0000
     45 H45          0.3856   5.7793  -2.8661 H              1 <1>                0.0000
     46 H46         -0.1198   3.7684  -1.4778 H              1 <1>                0.0000
     47 H47          0.2413   4.0328   2.7829 H              1 <1>                0.0000
     48 H48          0.9215   6.3597   2.6253 H              1 <1>                0.0000
     49 H49         -3.1702   3.4358   1.1997 H              1 <1>                0.0000
     50 H50         -3.0213   2.7284   2.8263 H              1 <1>                0.0000
     51 H51         -1.8487   3.9492   2.2759 H              1 <1>                0.0000
     52 H52         -2.9134   0.4505   2.0171 H              1 <1>                0.0000
     53 H53         -1.5025  -1.3460   1.1216 H              1 <1>                0.0000
     54 H54          1.0846  -4.9780  -2.8754 H              1 <1>                0.0000
     55 H55          0.8990  -4.5641  -5.2921 H              1 <1>                0.0000
     56 H56         -0.2626  -2.5584  -6.1164 H              1 <1>                0.0000
     57 H57         -1.2470  -0.9550  -4.5317 H              1 <1>                0.0000
     58 H58         -1.0801  -1.3508  -2.1105 H              1 <1>                0.0000
     59 H59          0.3219  -6.4042  -1.2316 H              1 <1>                0.0000
     60 H60         -1.1222  -6.4580  -0.1924 H              1 <1>                0.0000
     61 H61         -1.1821  -5.6099  -1.7562 H              1 <1>                0.0000
     62 H62         -1.2713  -4.2350   3.3946 H              1 <1>                0.0000
     63 H63         -1.5561  -6.0002   5.0857 H              1 <1>                0.0000
     64 H64         -0.5332  -8.2123   4.7433 H              1 <1>                0.0000
     65 H65          0.7771  -8.6660   2.7100 H              1 <1>                0.0000
     66 H66          1.0613  -6.9102   1.0090 H              1 <1>                0.0000
     67 H67          1.8913   2.5656  -0.4454 H              1 <1>                0.0000
     68 H68          2.1736   0.9332  -0.7247 H              1 <1>                0.0000
@<TRIPOS>BOND
    1    1    2 1     
    2    1   41 1     
    3    1   42 1     
    4    1   43 1     
    5    2   11 ar    
    6    2    3 ar    
    7    3    4 ar    
    8    3   44 1     
    9    4    5 ar    
   10    4   45 1     
   11    5   10 ar    
   12    5    6 ar    
   13    6    7 ar    
   14    6   46 1     
   15    7    8 ar    
   16    7   12 1     
   17    8    9 ar    
   18    8   47 1     
   19    9   10 ar    
   20    9   48 1     
   21   10   11 ar    
   22   12   39 ar    
   23   12   13 ar    
   24   13   14 1     
   25   13   15 ar    
   26   14   49 1     
   27   14   50 1     
   28   14   51 1     
   29   15   16 ar    
   30   15   52 1     
   31   16   17 ar    
   32   16   53 1     
   33   17   18 1     
   34   17   39 ar    
   35   18   19 2     
   36   18   20 1     
   37   20   37 1     
   38   20   21 2     
   39   21   22 1     
   40   21   28 1     
   41   22   27 ar    
   42   22   23 ar    
   43   23   24 ar    
   44   23   54 1     
   45   24   25 ar    
   46   24   55 1     
   47   25   26 ar    
   48   25   56 1     
   49   26   27 ar    
   50   26   57 1     
   51   27   58 1     
   52   28   29 1     
   53   28   30 1     
   54   29   59 1     
   55   29   60 1     
   56   29   61 1     
   57   30   31 1     
   58   30   37 am    
   59   31   36 ar    
   60   31   32 ar    
   61   32   33 ar    
   62   32   62 1     
   63   33   34 ar    
   64   33   63 1     
   65   34   35 ar    
   66   34   64 1     
   67   35   36 ar    
   68   35   65 1     
   69   36   66 1     
   70   37   38 2     
   71   39   40 1     
   72   40   67 1     
   73   40   68 1     
@<TRIPOS>SUBSTRUCTURE
      1 ****           1
@<TRIPOS>SET
DONOR_HYDROGENS      STATIC     ATOMS    <user>   **** ""
2 67 68
ATOM$RED        STATIC     ATOMS    COLORGROUP SYSTEM
2 67 68
