#       Name:                407
#       Creating user name   gbret
#       Creation time:       Thu Sep  8 23:32:17 2016


#       File generated by GOLD software.
#

@<TRIPOS>MOLECULE
407
    31    31     1
SMALL
NO_CHARGES


@<TRIPOS>ATOM
      1 C1           0.4246   0.4868   1.7235 C.3            1 <1>                0.0000
      2 C2           0.4454  -1.0431   1.7151 C.3            1 <1>                0.0000
      3 N3           1.1311  -1.5155   0.5098 N.pl3          1 <1>                0.0000
      4 S4           0.2558  -1.9139  -0.8384 S.o2           1 <1>                0.0000
      5 O5           1.1987  -2.2959  -1.8305 O.2            1 <1>                0.0000
      6 O6          -0.7957  -2.7621  -0.3980 O.2            1 <1>                0.0000
      7 C7          -0.5075  -0.4362  -1.4201 C.ar           1 <1>                0.0000
      8 C8          -1.7600  -0.0773  -0.9574 C.ar           1 <1>                0.0000
      9 C9          -2.3595   1.0813  -1.4129 C.ar           1 <1>                0.0000
     10 C10         -1.7053   1.8834  -2.3328 C.ar           1 <1>                0.0000
     11 F11         -2.2903   3.0166  -2.7785 F              1 <1>                0.0000
     12 C12         -0.4510   1.5233  -2.7951 C.ar           1 <1>                0.0000
     13 C13          0.2623   2.3950  -3.7962 C.3            1 <1>                0.0000
     14 C14          0.1488   0.3663  -2.3344 C.ar           1 <1>                0.0000
     15 C15          1.1742  -1.5423   2.9360 C.2            1 <1>                0.0000
     16 O16          2.1686  -2.2255   2.8116 O.2            1 <1>                0.0000
     17 N17          0.7211  -1.2296   4.1662 N.am           1 <1>                0.0000
     18 O18          1.4060  -1.6986   5.3134 O.3            1 <1>                0.0000
     19 H19          1.4472   0.8641   1.7158 H              1 <1>                0.0000
     20 H20         -0.1026   0.8478   0.8405 H              1 <1>                0.0000
     21 H21         -0.0856   0.8383   2.6203 H              1 <1>                0.0000
     22 H22         -0.5772  -1.4204   1.7229 H              1 <1>                0.0000
     23 H23          2.0978  -1.5950   0.5014 H              1 <1>                0.0000
     24 H24         -2.2701  -0.7030  -0.2399 H              1 <1>                0.0000
     25 H25         -3.3382   1.3611  -1.0518 H              1 <1>                0.0000
     26 H26          0.8686   3.1319  -3.2695 H              1 <1>                0.0000
     27 H27          0.9050   1.7771  -4.4233 H              1 <1>                0.0000
     28 H28         -0.4707   2.9066  -4.4200 H              1 <1>                0.0000
     29 H29          1.1275   0.0854  -2.6946 H              1 <1>                0.0000
     30 H30         -0.0741  -0.6832   4.2657 H              1 <1>                0.0000
     31 H31          1.0066  -1.4233   6.1499 H              1 <1>                0.0000
@<TRIPOS>BOND
    1    1    2 1     
    2    1   19 1     
    3    1   20 1     
    4    1   21 1     
    5    2    3 1     
    6    2   15 1     
    7    2   22 1     
    8    3    4 1     
    9    3   23 1     
   10    4    5 2     
   11    4    6 2     
   12    4    7 1     
   13    7   14 ar    
   14    7    8 ar    
   15    8    9 ar    
   16    8   24 1     
   17    9   10 ar    
   18    9   25 1     
   19   10   11 1     
   20   10   12 ar    
   21   12   13 1     
   22   12   14 ar    
   23   13   26 1     
   24   13   27 1     
   25   13   28 1     
   26   14   29 1     
   27   15   16 2     
   28   15   17 am    
   29   17   18 1     
   30   17   30 1     
   31   18   31 1     
@<TRIPOS>SUBSTRUCTURE
      1 ****           1
@<TRIPOS>SET
DONOR_HYDROGENS      STATIC     ATOMS    <user>   **** ""
3 23 30 31
ATOM$RED        STATIC     ATOMS    COLORGROUP SYSTEM
3 23 30 31
