#       Name:                41K
#       Creating user name   gbret
#       Creation time:       Thu Sep  8 23:35:26 2016


#       File generated by GOLD software.
#

@<TRIPOS>MOLECULE
41K
    20    20     1
SMALL
NO_CHARGES


@<TRIPOS>ATOM
      1 C1          -0.9687   1.9121   0.4826 C.3            1 <1>                0.0000
      2 C2          -0.9479   0.3822   0.4742 C.3            1 <1>                0.0000
      3 N3          -0.1875  -0.1178  -0.6941 N.4            1 <1>                0.0000
      4 H4          -0.5592  -1.0134  -0.9732 H              1 <1>                0.0000
      5 H5          -0.2848   0.5349  -1.4574 H              1 <1>                0.0000
      6 C6           1.2430  -0.2674  -0.3656 C.3            1 <1>                0.0000
      7 C7           1.3314  -1.0432   0.9779 C.3            1 <1>                0.0000
      8 S8          -0.0290  -0.2530   1.9275 S.3            1 <1>                0.0000
      9 C9           1.9396  -1.0447  -1.4527 C.2            1 <1>                0.0000
     10 O10          3.1564  -1.1210  -1.4635 O.co2          1 <1>                0.0000
     11 O11          1.2864  -1.5973  -2.3213 O.co2          1 <1>                0.0000
     12 C12         -2.3533  -0.1615   0.4619 C.2            1 <1>                0.0000
     13 O13         -2.6443  -1.0822  -0.2826 O.co2          1 <1>                0.0000
     14 O14         -3.1994   0.3191   1.1965 O.co2          1 <1>                0.0000
     15 H15          0.0539   2.2894   0.4749 H              1 <1>                0.0000
     16 H16         -1.4959   2.2731  -0.4004 H              1 <1>                0.0000
     17 H17         -1.4789   2.2636   1.3794 H              1 <1>                0.0000
     18 H18          1.7029   0.7149  -0.2572 H              1 <1>                0.0000
     19 H19          1.1417  -2.1064   0.8308 H              1 <1>                0.0000
     20 H20          2.2943  -0.8812   1.4624 H              1 <1>                0.0000
@<TRIPOS>BOND
    1    1    2 1     
    2    1   15 1     
    3    1   16 1     
    4    1   17 1     
    5    2    8 1     
    6    2    3 1     
    7    2   12 1     
    8    3    4 1     
    9    3    5 1     
   10    3    6 1     
   11    6    7 1     
   12    6    9 1     
   13    6   18 1     
   14    7    8 1     
   15    7   19 1     
   16    7   20 1     
   17    9   10 ar    
   18    9   11 ar    
   19   12   13 ar    
   20   12   14 ar    
@<TRIPOS>SUBSTRUCTURE
      1 ****           1
@<TRIPOS>SET
DONOR_HYDROGENS      STATIC     ATOMS    <user>   **** ""
2 4 5
ATOM$RED        STATIC     ATOMS    COLORGROUP SYSTEM
2 4 5
