#       Name:                44U
#       Creating user name   gbret
#       Creation time:       Thu Sep  8 23:43:06 2016


#       File generated by GOLD software.
#

@<TRIPOS>MOLECULE
44U
    58    60     1
SMALL
NO_CHARGES


@<TRIPOS>ATOM
      1 C1          -1.7248   5.1785  -5.5714 C.3            1 <1>                0.0000
      2 C2          -1.4761   3.6852  -5.3498 C.3            1 <1>                0.0000
      3 C3          -0.9022   3.4663  -3.9485 C.3            1 <1>                0.0000
      4 N4          -0.6640   2.0364  -3.7362 N.am           1 <1>                0.0000
      5 C5          -0.1572   1.6043  -2.5645 C.2            1 <1>                0.0000
      6 O6           0.1018   2.3992  -1.6859 O.2            1 <1>                0.0000
      7 C7           0.0878   0.1335  -2.3462 C.3            1 <1>                0.0000
      8 C8           1.1315  -0.3809  -3.3600 C.3            1 <1>                0.0000
      9 C9           2.4527  -0.3445  -2.5472 C.3            1 <1>                0.0000
     10 C10          1.9580  -0.7342  -1.1319 C.3            1 <1>                0.0000
     11 N11          0.6397  -0.0873  -1.0015 N.am           1 <1>                0.0000
     12 C12          0.0400   0.2468   0.1583 C.2            1 <1>                0.0000
     13 O13         -1.0503   0.7780   0.1462 O.2            1 <1>                0.0000
     14 C14          0.7241  -0.0396   1.4702 C.3            1 <1>                0.0000
     15 N15          0.1440   0.8082   2.5203 N.4            1 <1>                0.0000
     16 H16         -0.8591   0.6998   2.5242 H              1 <1>                0.0000
     17 H17          0.5155   0.5339   3.4174 H              1 <1>                0.0000
     18 H18          0.3773   1.7733   2.3404 H              1 <1>                0.0000
     19 C19          0.5277  -1.5120   1.8370 C.3            1 <1>                0.0000
     20 C20          1.2491  -1.8090   3.1263 C.ar           1 <1>                0.0000
     21 C21          0.8090  -2.8325   3.9446 C.ar           1 <1>                0.0000
     22 C22          1.4708  -3.1049   5.1273 C.ar           1 <1>                0.0000
     23 C23          2.5729  -2.3541   5.4915 C.ar           1 <1>                0.0000
     24 C24          3.0135  -1.3312   4.6727 C.ar           1 <1>                0.0000
     25 C25          2.3543  -1.0616   3.4880 C.ar           1 <1>                0.0000
     26 C26         -0.9426  -1.7954   2.0072 C.ar           1 <1>                0.0000
     27 C27         -1.6251  -1.2784   3.0924 C.ar           1 <1>                0.0000
     28 C28         -2.9737  -1.5384   3.2486 C.ar           1 <1>                0.0000
     29 C29         -3.6400  -2.3152   2.3192 C.ar           1 <1>                0.0000
     30 C30         -2.9577  -2.8315   1.2335 C.ar           1 <1>                0.0000
     31 C31         -1.6100  -2.5679   1.0751 C.ar           1 <1>                0.0000
     32 H32         -0.7848   5.7217  -5.4749 H              1 <1>                0.0000
     33 H33         -2.1337   5.3345  -6.5697 H              1 <1>                0.0000
     34 H34         -2.4332   5.5432  -4.8276 H              1 <1>                0.0000
     35 H35         -2.4162   3.1420  -5.4463 H              1 <1>                0.0000
     36 H36         -0.7677   3.3205  -6.0936 H              1 <1>                0.0000
     37 H37          0.0379   4.0094  -3.8519 H              1 <1>                0.0000
     38 H38         -1.6106   3.8309  -3.2047 H              1 <1>                0.0000
     39 H39         -0.8711   1.4007  -4.4390 H              1 <1>                0.0000
     40 H40         -0.8453  -0.4184  -2.4591 H              1 <1>                0.0000
     41 H41          0.8979  -1.3992  -3.6709 H              1 <1>                0.0000
     42 H42          1.1910   0.2828  -4.2226 H              1 <1>                0.0000
     43 H43          3.1655  -1.0764  -2.9272 H              1 <1>                0.0000
     44 H44          2.8847   0.6563  -2.5484 H              1 <1>                0.0000
     45 H45          1.8593  -1.8165  -1.0492 H              1 <1>                0.0000
     46 H46          2.6430  -0.3558  -0.3731 H              1 <1>                0.0000
     47 H47          1.7892   0.1731   1.3785 H              1 <1>                0.0000
     48 H48          0.9295  -2.1410   1.0426 H              1 <1>                0.0000
     49 H49         -0.0520  -3.4190   3.6601 H              1 <1>                0.0000
     50 H50          1.1265  -3.9041   5.7670 H              1 <1>                0.0000
     51 H51          3.0894  -2.5665   6.4159 H              1 <1>                0.0000
     52 H52          3.8743  -0.7444   4.9574 H              1 <1>                0.0000
     53 H53          2.6986  -0.2624   2.8483 H              1 <1>                0.0000
     54 H54         -1.1045  -0.6715   3.8185 H              1 <1>                0.0000
     55 H55         -3.5068  -1.1350   4.0968 H              1 <1>                0.0000
     56 H56         -4.6935  -2.5189   2.4416 H              1 <1>                0.0000
     57 H57         -3.4781  -3.4386   0.5076 H              1 <1>                0.0000
     58 H58         -1.0769  -2.9713   0.2268 H              1 <1>                0.0000
@<TRIPOS>BOND
    1    1    2 1     
    2    1   32 1     
    3    1   33 1     
    4    1   34 1     
    5    2    3 1     
    6    2   35 1     
    7    2   36 1     
    8    3    4 1     
    9    3   37 1     
   10    3   38 1     
   11    4    5 am    
   12    4   39 1     
   13    5    6 2     
   14    5    7 1     
   15    7   11 1     
   16    7    8 1     
   17    7   40 1     
   18    8    9 1     
   19    8   41 1     
   20    8   42 1     
   21    9   10 1     
   22    9   43 1     
   23    9   44 1     
   24   10   11 1     
   25   10   45 1     
   26   10   46 1     
   27   11   12 am    
   28   12   13 2     
   29   12   14 1     
   30   14   15 1     
   31   14   19 1     
   32   14   47 1     
   33   15   16 1     
   34   15   17 1     
   35   15   18 1     
   36   19   20 1     
   37   19   26 1     
   38   19   48 1     
   39   20   25 ar    
   40   20   21 ar    
   41   21   22 ar    
   42   21   49 1     
   43   22   23 ar    
   44   22   50 1     
   45   23   24 ar    
   46   23   51 1     
   47   24   25 ar    
   48   24   52 1     
   49   25   53 1     
   50   26   31 ar    
   51   26   27 ar    
   52   27   28 ar    
   53   27   54 1     
   54   28   29 ar    
   55   28   55 1     
   56   29   30 ar    
   57   29   56 1     
   58   30   31 ar    
   59   30   57 1     
   60   31   58 1     
@<TRIPOS>SUBSTRUCTURE
      1 ****           1
@<TRIPOS>SET
DONOR_HYDROGENS      STATIC     ATOMS    <user>   **** ""
4 39 16 17 18
ATOM$RED        STATIC     ATOMS    COLORGROUP SYSTEM
4 39 16 17 18
