#       Name:                47D
#       Creating user name   gbret
#       Creation time:       Thu Sep  8 23:48:54 2016


#       File generated by GOLD software.
#

@<TRIPOS>MOLECULE
47D
    32    34     1
SMALL
NO_CHARGES


@<TRIPOS>ATOM
      1 O1           2.3872   1.4745  -1.8618 O.co2          1 <1>                0.0000
      2 C2           2.3706   2.6936  -1.8551 C.2            1 <1>                0.0000
      3 O3           3.4181   3.3175  -1.8617 O.co2          1 <1>                0.0000
      4 C4           1.0555   3.4293  -1.8448 C.3            1 <1>                0.0000
      5 N5          -0.0450   2.4623  -1.8449 N.am           1 <1>                0.0000
      6 C6          -0.5560   2.0171  -3.0336 C.2            1 <1>                0.0000
      7 C7          -1.5700   1.1255  -3.0335 C.2            1 <1>                0.0000
      8 C8          -2.0851   0.6682  -1.7966 C.2            1 <1>                0.0000
      9 O9          -2.9991  -0.1361  -1.7712 O.2            1 <1>                0.0000
     10 N10         -1.5540   1.1313  -0.6470 N.am           1 <1>                0.0000
     11 C11         -2.0789   0.6652   0.6389 C.3            1 <1>                0.0000
     12 C12         -1.3206  -0.5615   1.0761 C.2            1 <1>                0.0000
     13 N13         -0.2635  -0.5358   1.7962 N.2            1 <1>                0.0000
     14 C14          0.3112  -1.7120   2.1119 C.ar           1 <1>                0.0000
     15 C15          1.4651  -1.9718   2.8792 C.ar           1 <1>                0.0000
     16 C16          1.8856  -3.2626   3.0822 C.ar           1 <1>                0.0000
     17 Cl17         3.3083  -3.5647   4.0300 Cl             1 <1>                0.0000
     18 C18          1.1828  -4.3293   2.5365 C.ar           1 <1>                0.0000
     19 C19          0.0538  -4.0985   1.7844 C.ar           1 <1>                0.0000
     20 C20         -0.3877  -2.7949   1.5679 C.ar           1 <1>                0.0000
     21 S21         -1.7686  -2.1595   0.6788 S.3            1 <1>                0.0000
     22 C22         -0.5401   2.0160  -0.6761 C.2            1 <1>                0.0000
     23 O23         -0.0709   2.4246   0.3685 O.2            1 <1>                0.0000
     24 H24          0.9934   4.0503  -0.9512 H              1 <1>                0.0000
     25 H25          0.9850   4.0599  -2.7311 H              1 <1>                0.0000
     26 H26         -0.1504   2.3774  -3.9674 H              1 <1>                0.0000
     27 H27         -1.9828   0.7662  -3.9646 H              1 <1>                0.0000
     28 H28         -1.9610   1.4505   1.3856 H              1 <1>                0.0000
     29 H29         -3.1357   0.4205   0.5327 H              1 <1>                0.0000
     30 H30          2.0210  -1.1515   3.3088 H              1 <1>                0.0000
     31 H31          1.5230  -5.3408   2.7025 H              1 <1>                0.0000
     32 H32         -0.4911  -4.9294   1.3611 H              1 <1>                0.0000
@<TRIPOS>BOND
    1    1    2 ar    
    2    2    3 ar    
    3    2    4 1     
    4    4    5 1     
    5    4   24 1     
    6    4   25 1     
    7    5   22 am    
    8    5    6 1     
    9    6    7 2     
   10    6   26 1     
   11    7    8 1     
   12    7   27 1     
   13    8    9 2     
   14    8   10 am    
   15   10   11 1     
   16   10   22 am    
   17   11   12 1     
   18   11   28 1     
   19   11   29 1     
   20   12   21 1     
   21   12   13 2     
   22   13   14 1     
   23   14   20 ar    
   24   14   15 ar    
   25   15   16 ar    
   26   15   30 1     
   27   16   17 1     
   28   16   18 ar    
   29   18   19 ar    
   30   18   31 1     
   31   19   20 ar    
   32   19   32 1     
   33   20   21 1     
   34   22   23 2     
@<TRIPOS>SUBSTRUCTURE
      1 ****           1
