#       Name:                487
#       Creating user name   gbret
#       Creation time:       Thu Sep  8 23:50:40 2016


#       File generated by GOLD software.
#

@<TRIPOS>MOLECULE
487
    44    45     1
SMALL
NO_CHARGES


@<TRIPOS>ATOM
      1 C1           0.0569   2.6949  -0.1991 C.3            1 <1>                0.0000
      2 C2           0.3420   1.2028  -0.3821 C.3            1 <1>                0.0000
      3 N3           1.1537   0.7179   0.7421 N.4            1 <1>                0.0000
      4 H4           0.6470   0.8794   1.5996 H              1 <1>                0.0000
      5 C5           2.4122   1.4877   0.7839 C.3            1 <1>                0.0000
      6 C6           2.9438   1.4500   2.1948 C.3            1 <1>                0.0000
      7 C7           3.9922   0.3358   2.3723 C.3            1 <1>                0.0000
      8 C8           3.5843  -0.9563   1.6362 C.3            1 <1>                0.0000
      9 C9           2.1163  -1.2638   1.7862 C.3            1 <1>                0.0000
     10 C10          1.3522  -0.6556   0.5914 C.3            1 <1>                0.0000
     11 C11         -0.9595   0.4444  -0.4258 C.ar           1 <1>                0.0000
     12 N12         -1.6431   0.2438   0.6873 N.ar           1 <1>                0.0000
     13 C13         -2.7932  -0.4252   0.6527 C.ar           1 <1>                0.0000
     14 N14         -3.5065  -0.6337   1.8154 N.pl3          1 <1>                0.0000
     15 N15         -3.2539  -0.8916  -0.5030 N.ar           1 <1>                0.0000
     16 C16         -2.5639  -0.6880  -1.6198 C.ar           1 <1>                0.0000
     17 N17         -1.4169  -0.0135  -1.5778 N.ar           1 <1>                0.0000
     18 N18         -3.0379  -1.1707  -2.8225 N.pl3          1 <1>                0.0000
     19 C19         -4.3028  -1.9084  -2.8683 C.3            1 <1>                0.0000
     20 C20         -2.2762  -0.9456  -4.0535 C.3            1 <1>                0.0000
     21 H21          0.9829   3.2584  -0.3133 H              1 <1>                0.0000
     22 H22         -0.6625   3.0221  -0.9498 H              1 <1>                0.0000
     23 H23         -0.3529   2.8671   0.7961 H              1 <1>                0.0000
     24 H24          0.8841   1.0482  -1.3150 H              1 <1>                0.0000
     25 H25          3.1389   1.0409   0.1054 H              1 <1>                0.0000
     26 H26          2.2214   2.5201   0.4907 H              1 <1>                0.0000
     27 H27          3.4019   2.4110   2.4288 H              1 <1>                0.0000
     28 H28          2.1167   1.2739   2.8826 H              1 <1>                0.0000
     29 H29          4.9482   0.6818   1.9794 H              1 <1>                0.0000
     30 H30          4.1039   0.1192   3.4348 H              1 <1>                0.0000
     31 H31          3.8156  -0.8469   0.5766 H              1 <1>                0.0000
     32 H32          4.1622  -1.7887   2.0376 H              1 <1>                0.0000
     33 H33          1.9698  -2.3438   1.8018 H              1 <1>                0.0000
     34 H34          1.7463  -0.8310   2.7157 H              1 <1>                0.0000
     35 H35          0.3817  -1.1442   0.5056 H              1 <1>                0.0000
     36 H36          1.9201  -0.8361  -0.3214 H              1 <1>                0.0000
     37 H37         -3.1698  -0.2926   2.6588 H              1 <1>                0.0000
     38 H38         -4.3445  -1.1214   1.7895 H              1 <1>                0.0000
     39 H39         -5.1243  -1.2111  -3.0329 H              1 <1>                0.0000
     40 H40         -4.2720  -2.6323  -3.6827 H              1 <1>                0.0000
     41 H41         -4.4533  -2.4307  -1.9235 H              1 <1>                0.0000
     42 H42         -1.3712  -0.3835  -3.8231 H              1 <1>                0.0000
     43 H43         -2.0056  -1.9052  -4.4940 H              1 <1>                0.0000
     44 H44         -2.8851  -0.3807  -4.7593 H              1 <1>                0.0000
@<TRIPOS>BOND
    1    1    2 1     
    2    1   21 1     
    3    1   22 1     
    4    1   23 1     
    5    2    3 1     
    6    2   11 1     
    7    2   24 1     
    8    3    4 1     
    9    3   10 1     
   10    3    5 1     
   11    5    6 1     
   12    5   25 1     
   13    5   26 1     
   14    6    7 1     
   15    6   27 1     
   16    6   28 1     
   17    7    8 1     
   18    7   29 1     
   19    7   30 1     
   20    8    9 1     
   21    8   31 1     
   22    8   32 1     
   23    9   10 1     
   24    9   33 1     
   25    9   34 1     
   26   10   35 1     
   27   10   36 1     
   28   11   17 ar    
   29   11   12 ar    
   30   12   13 ar    
   31   13   14 1     
   32   13   15 ar    
   33   14   37 1     
   34   14   38 1     
   35   15   16 ar    
   36   16   17 ar    
   37   16   18 1     
   38   18   19 1     
   39   18   20 1     
   40   19   39 1     
   41   19   40 1     
   42   19   41 1     
   43   20   42 1     
   44   20   43 1     
   45   20   44 1     
@<TRIPOS>SUBSTRUCTURE
      1 ****           1
@<TRIPOS>SET
DONOR_HYDROGENS      STATIC     ATOMS    <user>   **** ""
3 4 37 38
ATOM$RED        STATIC     ATOMS    COLORGROUP SYSTEM
3 4 37 38
