#       Name:                4FL
#       Creating user name   gbret
#       Creation time:       Fri Sep  9 00:07:05 2016


#       File generated by GOLD software.
#

@<TRIPOS>MOLECULE
4FL
    18    19     1
SMALL
NO_CHARGES


@<TRIPOS>ATOM
      1 C1          -1.6485   2.6103   0.0290 C.2            1 <1>                0.0000
      2 C2          -0.3735   3.0532   0.0192 C.2            1 <1>                0.0000
      3 N3           0.4336   1.9497   0.0055 N.pl3          1 <1>                0.0000
      4 H4           1.4035   1.9444  -0.0037 H              1 <1>                0.0000
      5 C5          -0.3837   0.8573   0.0075 C.2            1 <1>                0.0000
      6 N6          -1.6303   1.2736   0.0216 N.2            1 <1>                0.0000
      7 C7           0.0576  -0.5545  -0.0043 C.ar           1 <1>                0.0000
      8 C8           1.4181  -0.8826  -0.0132 C.ar           1 <1>                0.0000
      9 C9           1.7853  -2.2123  -0.0242 C.ar           1 <1>                0.0000
     10 N10          0.8743  -3.1667  -0.0267 N.ar           1 <1>                0.0000
     11 C11         -0.4180  -2.9012  -0.0185 C.ar           1 <1>                0.0000
     12 C12         -0.8736  -1.5992  -0.0010 C.ar           1 <1>                0.0000
     13 H13         -2.5327   3.2303   0.0448 H              1 <1>                0.0000
     14 H14         -0.0517   4.0841   0.0216 H              1 <1>                0.0000
     15 H15          2.1692  -0.1066  -0.0120 H              1 <1>                0.0000
     16 H16          2.8326  -2.4757  -0.0311 H              1 <1>                0.0000
     17 H17         -1.1288  -3.7143  -0.0210 H              1 <1>                0.0000
     18 H18         -1.9330  -1.3892   0.0059 H              1 <1>                0.0000
@<TRIPOS>BOND
    1    1    6 1     
    2    1    2 2     
    3    1   13 1     
    4    2    3 1     
    5    2   14 1     
    6    3    4 1     
    7    3    5 1     
    8    5    6 2     
    9    5    7 1     
   10    7   12 ar    
   11    7    8 ar    
   12    8    9 ar    
   13    8   15 1     
   14    9   10 ar    
   15    9   16 1     
   16   10   11 ar    
   17   11   12 ar    
   18   11   17 1     
   19   12   18 1     
@<TRIPOS>SUBSTRUCTURE
      1 ****           1
@<TRIPOS>SET
DONOR_HYDROGENS      STATIC     ATOMS    <user>   **** ""
1 4
ATOM$RED        STATIC     ATOMS    COLORGROUP SYSTEM
1 4
