#       Name:                4K9
#       Creating user name   gbret
#       Creation time:       Fri Sep  9 00:15:42 2016


#       File generated by GOLD software.
#

@<TRIPOS>MOLECULE
4K9
    38    40     1
SMALL
NO_CHARGES


@<TRIPOS>ATOM
      1 N1          -5.8048  -1.5307   0.3854 N.pl3          1 <1>                0.0000
      2 S2          -5.4730  -0.0644   1.0797 S.o2           1 <1>                0.0000
      3 O3          -6.0029   0.9226   0.2055 O.2            1 <1>                0.0000
      4 O4          -5.8470  -0.1736   2.4463 O.2            1 <1>                0.0000
      5 C5          -3.7229   0.1391   1.0576 C.ar           1 <1>                0.0000
      6 C6          -2.9635  -0.3128   2.1222 C.ar           1 <1>                0.0000
      7 C7          -1.5929  -0.1566   2.1112 C.ar           1 <1>                0.0000
      8 C8          -0.9724   0.4585   1.0225 C.ar           1 <1>                0.0000
      9 C9          -1.7445   0.9118  -0.0485 C.ar           1 <1>                0.0000
     10 C10         -3.1137   0.7450  -0.0269 C.ar           1 <1>                0.0000
     11 C11          0.4957   0.6297   1.0042 C.2            1 <1>                0.0000
     12 O12          1.0737   1.0274   1.9969 O.2            1 <1>                0.0000
     13 N13          1.1934   0.3448  -0.1132 N.am           1 <1>                0.0000
     14 C14          0.5022  -0.0888  -1.3350 C.3            1 <1>                0.0000
     15 C15          1.2781  -1.2783  -1.9156 C.3            1 <1>                0.0000
     16 C16          2.6785  -0.8093  -2.3098 C.3            1 <1>                0.0000
     17 C17          3.3346  -0.0862  -1.1633 C.ar           1 <1>                0.0000
     18 C18          4.7142   0.0352  -1.1493 C.ar           1 <1>                0.0000
     19 C19          5.3453   0.6953  -0.1130 C.ar           1 <1>                0.0000
     20 C20          4.6023   1.2405   0.9183 C.ar           1 <1>                0.0000
     21 C21          3.2271   1.1230   0.9126 C.ar           1 <1>                0.0000
     22 C22          2.5893   0.4629  -0.1305 C.ar           1 <1>                0.0000
     23 H23         -6.3580  -1.5766  -0.4100 H              1 <1>                0.0000
     24 H24         -5.4427  -2.3434   0.7719 H              1 <1>                0.0000
     25 H25         -3.4448  -0.7886   2.9638 H              1 <1>                0.0000
     26 H26         -1.0013  -0.5092   2.9431 H              1 <1>                0.0000
     27 H27         -1.2706   1.3889  -0.8936 H              1 <1>                0.0000
     28 H28         -3.7122   1.0949  -0.8551 H              1 <1>                0.0000
     29 H29         -0.5161  -0.3943  -1.0945 H              1 <1>                0.0000
     30 H30          0.4826   0.7272  -2.0575 H              1 <1>                0.0000
     31 H31          1.3543  -2.0656  -1.1657 H              1 <1>                0.0000
     32 H32          0.7591  -1.6585  -2.7955 H              1 <1>                0.0000
     33 H33          3.2836  -1.6736  -2.5835 H              1 <1>                0.0000
     34 H34          2.6054  -0.1369  -3.1646 H              1 <1>                0.0000
     35 H35          5.2993  -0.3886  -1.9521 H              1 <1>                0.0000
     36 H36          6.4215   0.7857  -0.1079 H              1 <1>                0.0000
     37 H37          5.0976   1.7571   1.7272 H              1 <1>                0.0000
     38 H38          2.6458   1.5477   1.7176 H              1 <1>                0.0000
@<TRIPOS>BOND
    1    1    2 1     
    2    1   23 1     
    3    1   24 1     
    4    2    3 2     
    5    2    4 2     
    6    2    5 1     
    7    5   10 ar    
    8    5    6 ar    
    9    6    7 ar    
   10    6   25 1     
   11    7    8 ar    
   12    7   26 1     
   13    8    9 ar    
   14    8   11 1     
   15    9   10 ar    
   16    9   27 1     
   17   10   28 1     
   18   11   12 2     
   19   11   13 am    
   20   13   22 1     
   21   13   14 1     
   22   14   15 1     
   23   14   29 1     
   24   14   30 1     
   25   15   16 1     
   26   15   31 1     
   27   15   32 1     
   28   16   17 1     
   29   16   33 1     
   30   16   34 1     
   31   17   22 ar    
   32   17   18 ar    
   33   18   19 ar    
   34   18   35 1     
   35   19   20 ar    
   36   19   36 1     
   37   20   21 ar    
   38   20   37 1     
   39   21   22 ar    
   40   21   38 1     
@<TRIPOS>SUBSTRUCTURE
      1 ****           1
@<TRIPOS>SET
DONOR_HYDROGENS      STATIC     ATOMS    <user>   **** ""
2 23 24
ATOM$RED        STATIC     ATOMS    COLORGROUP SYSTEM
2 23 24
