#       Name:                4LL
#       Creating user name   gbret
#       Creation time:       Fri Sep  9 00:18:42 2016


#       File generated by GOLD software.
#

@<TRIPOS>MOLECULE
4LL
    32    33     1
SMALL
NO_CHARGES


@<TRIPOS>ATOM
      1 C1           2.6641   5.1241  -0.0245 C.3            1 <1>                0.0000
      2 C2           2.6849   3.5942  -0.0329 C.3            1 <1>                0.0000
      3 C3           1.2495   3.0647  -0.0220 C.3            1 <1>                0.0000
      4 C4           1.2702   1.5348  -0.0304 C.3            1 <1>                0.0000
      5 N5          -0.1042   1.0277  -0.0200 N.pl3          1 <1>                0.0000
      6 C6          -0.3392  -0.3399  -0.0251 C.ar           1 <1>                0.0000
      7 C7           0.7508  -1.2221  -0.0345 C.ar           1 <1>                0.0000
      8 C8           0.5349  -2.5672  -0.0390 C.ar           1 <1>                0.0000
      9 C9          -0.7969  -3.0302  -0.0342 C.ar           1 <1>                0.0000
     10 C10         -1.0905  -4.4033  -0.0379 C.ar           1 <1>                0.0000
     11 C11         -2.3883  -4.8170  -0.0326 C.ar           1 <1>                0.0000
     12 C12         -3.4323  -3.8961  -0.0235 C.ar           1 <1>                0.0000
     13 C13         -3.1848  -2.5529  -0.0201 C.ar           1 <1>                0.0000
     14 O14         -4.2163  -1.6684  -0.0112 O.3            1 <1>                0.0000
     15 C15         -1.8533  -2.0887  -0.0248 C.ar           1 <1>                0.0000
     16 N16         -1.5806  -0.7792  -0.0156 N.ar           1 <1>                0.0000
     17 H17          3.6867   5.5014  -0.0322 H              1 <1>                0.0000
     18 H18          2.1369   5.4851  -0.9075 H              1 <1>                0.0000
     19 H19          2.1539   5.4756   0.8723 H              1 <1>                0.0000
     20 H20          3.1951   3.2427  -0.9297 H              1 <1>                0.0000
     21 H21          3.2121   3.2332   0.8502 H              1 <1>                0.0000
     22 H22          0.7393   3.4162   0.8748 H              1 <1>                0.0000
     23 H23          0.7223   3.4257  -0.9051 H              1 <1>                0.0000
     24 H24          1.7804   1.1833  -0.9272 H              1 <1>                0.0000
     25 H25          1.7974   1.1737   0.8526 H              1 <1>                0.0000
     26 H26         -0.8499   1.6480  -0.0096 H              1 <1>                0.0000
     27 H27          1.7594  -0.8360  -0.0384 H              1 <1>                0.0000
     28 H28          1.3625  -3.2610  -0.0466 H              1 <1>                0.0000
     29 H29         -0.2904  -5.1287  -0.0453 H              1 <1>                0.0000
     30 H30         -2.6104  -5.8739  -0.0359 H              1 <1>                0.0000
     31 H31         -4.4530  -4.2490  -0.0195 H              1 <1>                0.0000
     32 H32         -4.5100  -1.4155   0.8748 H              1 <1>                0.0000
@<TRIPOS>BOND
    1    1    2 1     
    2    1   17 1     
    3    1   18 1     
    4    1   19 1     
    5    2    3 1     
    6    2   20 1     
    7    2   21 1     
    8    3    4 1     
    9    3   22 1     
   10    3   23 1     
   11    4    5 1     
   12    4   24 1     
   13    4   25 1     
   14    5    6 1     
   15    5   26 1     
   16    6   16 ar    
   17    6    7 ar    
   18    7    8 ar    
   19    7   27 1     
   20    8    9 ar    
   21    8   28 1     
   22    9   15 ar    
   23    9   10 ar    
   24   10   11 ar    
   25   10   29 1     
   26   11   12 ar    
   27   11   30 1     
   28   12   13 ar    
   29   12   31 1     
   30   13   14 1     
   31   13   15 ar    
   32   14   32 1     
   33   15   16 ar    
@<TRIPOS>SUBSTRUCTURE
      1 ****           1
@<TRIPOS>SET
DONOR_HYDROGENS      STATIC     ATOMS    <user>   **** ""
2 26 32
ATOM$RED        STATIC     ATOMS    COLORGROUP SYSTEM
2 26 32
