#       Name:                4MN
#       Creating user name   gbret
#       Creation time:       Fri Sep  9 00:21:15 2016


#       File generated by GOLD software.
#

@<TRIPOS>MOLECULE
4MN
    17    17     1
SMALL
NO_CHARGES


@<TRIPOS>ATOM
      1 C1          -0.0378   2.6918   0.0148 C.3            1 <1>                0.0000
      2 C2          -0.0173   1.1849   0.0065 C.ar           1 <1>                0.0000
      3 C3          -0.0136   0.5017  -1.1957 C.ar           1 <1>                0.0000
      4 C4           0.0055  -0.8792  -1.2070 C.ar           1 <1>                0.0000
      5 C5           0.0211  -1.5818  -0.0087 C.ar           1 <1>                0.0000
      6 N6           0.0410  -2.9783  -0.0164 N.pl3          1 <1>                0.0000
      7 C7           0.0174  -0.8923   1.1972 C.ar           1 <1>                0.0000
      8 C8           0.0035   0.4887   1.2011 C.ar           1 <1>                0.0000
      9 H9           0.9848   3.0691   0.0071 H              1 <1>                0.0000
     10 H10         -0.5649   3.0529  -0.8683 H              1 <1>                0.0000
     11 H11         -0.5480   3.0433   0.9116 H              1 <1>                0.0000
     12 H12         -0.0261   1.0485  -2.1270 H              1 <1>                0.0000
     13 H13          0.0080  -1.4122  -2.1463 H              1 <1>                0.0000
     14 H14          0.0440  -3.4587  -0.8591 H              1 <1>                0.0000
     15 H15          0.0519  -3.4679   0.8209 H              1 <1>                0.0000
     16 H16          0.0291  -1.4355   2.1306 H              1 <1>                0.0000
     17 H17          0.0009   1.0254   2.1383 H              1 <1>                0.0000
@<TRIPOS>BOND
    1    1    2 1     
    2    1    9 1     
    3    1   10 1     
    4    1   11 1     
    5    2    8 ar    
    6    2    3 ar    
    7    3    4 ar    
    8    3   12 1     
    9    4    5 ar    
   10    4   13 1     
   11    5    6 1     
   12    5    7 ar    
   13    6   14 1     
   14    6   15 1     
   15    7    8 ar    
   16    7   16 1     
   17    8   17 1     
@<TRIPOS>SUBSTRUCTURE
      1 ****           1
@<TRIPOS>SET
DONOR_HYDROGENS      STATIC     ATOMS    <user>   **** ""
2 14 15
ATOM$RED        STATIC     ATOMS    COLORGROUP SYSTEM
2 14 15
