#       Name:                4RQ
#       Creating user name   gbret
#       Creation time:       Fri Sep  9 00:30:43 2016


#       File generated by GOLD software.
#

@<TRIPOS>MOLECULE
4RQ
    41    43     1
SMALL
NO_CHARGES


@<TRIPOS>ATOM
      1 F1          -2.2357  -9.1902  -0.0185 F              1 <1>                0.0000
      2 C2          -2.2540  -7.8393  -0.0111 C.ar           1 <1>                0.0000
      3 C3          -3.4727  -7.1760   0.0099 C.ar           1 <1>                0.0000
      4 C4          -3.4938  -5.7911   0.0175 C.ar           1 <1>                0.0000
      5 C5          -2.2823  -5.1154   0.0038 C.ar           1 <1>                0.0000
      6 N6          -1.9232  -3.7773   0.0058 N.pl3          1 <1>                0.0000
      7 H7          -2.5274  -3.0186   0.0189 H              1 <1>                0.0000
      8 C8          -0.5598  -3.7274  -0.0135 C.2            1 <1>                0.0000
      9 N9           0.1898  -2.5719  -0.0176 N.pl3          1 <1>                0.0000
     10 C10         -0.4757  -1.2669  -0.0007 C.3            1 <1>                0.0000
     11 C11          0.5774  -0.1571  -0.0095 C.3            1 <1>                0.0000
     12 C12         -0.1177   1.2058   0.0082 C.3            1 <1>                0.0000
     13 N13          0.8935   2.2713  -0.0003 N.4            1 <1>                0.0000
     14 H14          1.4818   2.1832   0.8148 H              1 <1>                0.0000
     15 H15          1.4582   2.1926  -0.8327 H              1 <1>                0.0000
     16 C16          0.2261   3.5799   0.0167 C.3            1 <1>                0.0000
     17 C17          1.2634   4.6730   0.0081 C.ar           1 <1>                0.0000
     18 C18          1.7602   5.1634   1.2010 C.ar           1 <1>                0.0000
     19 C19          2.7123   6.1673   1.1938 C.ar           1 <1>                0.0000
     20 Cl20         3.3361   6.7831   2.6922 Cl             1 <1>                0.0000
     21 C21          3.1673   6.6799  -0.0078 C.ar           1 <1>                0.0000
     22 C22          2.6701   6.1884  -1.2014 C.ar           1 <1>                0.0000
     23 Cl23         3.2409   6.8307  -2.7098 Cl             1 <1>                0.0000
     24 C24          1.7218   5.1809  -1.1930 C.ar           1 <1>                0.0000
     25 N25         -0.0696  -4.9434  -0.0269 N.2            1 <1>                0.0000
     26 C26         -1.0821  -5.8463  -0.0172 C.ar           1 <1>                0.0000
     27 N27         -1.1141  -7.1780  -0.0184 N.ar           1 <1>                0.0000
     28 H28         -4.3969  -7.7348   0.0198 H              1 <1>                0.0000
     29 H29         -4.4291  -5.2513   0.0334 H              1 <1>                0.0000
     30 H30          1.1584  -2.6221  -0.0318 H              1 <1>                0.0000
     31 H31         -1.1112  -1.1717  -0.8812 H              1 <1>                0.0000
     32 H32         -1.0858  -1.1818   0.8986 H              1 <1>                0.0000
     33 H33          1.2129  -0.2523   0.8709 H              1 <1>                0.0000
     34 H34          1.1874  -0.2422  -0.9088 H              1 <1>                0.0000
     35 H35         -0.7532   1.3010  -0.8723 H              1 <1>                0.0000
     36 H36         -0.7277   1.2909   0.9075 H              1 <1>                0.0000
     37 H37         -0.4094   3.6751  -0.8637 H              1 <1>                0.0000
     38 H38         -0.3839   3.6650   0.9160 H              1 <1>                0.0000
     39 H39          1.4049   4.7631   2.1391 H              1 <1>                0.0000
     40 H40          3.9102   7.4638  -0.0140 H              1 <1>                0.0000
     41 H41          1.3338   4.7968  -2.1248 H              1 <1>                0.0000
@<TRIPOS>BOND
    1    1    2 1     
    2    2   27 ar    
    3    2    3 ar    
    4    3    4 ar    
    5    3   28 1     
    6    4    5 ar    
    7    4   29 1     
    8    5   26 ar    
    9    5    6 1     
   10    6    7 1     
   11    6    8 1     
   12    8    9 1     
   13    8   25 2     
   14    9   10 1     
   15    9   30 1     
   16   10   11 1     
   17   10   31 1     
   18   10   32 1     
   19   11   12 1     
   20   11   33 1     
   21   11   34 1     
   22   12   13 1     
   23   12   35 1     
   24   12   36 1     
   25   13   14 1     
   26   13   15 1     
   27   13   16 1     
   28   16   17 1     
   29   16   37 1     
   30   16   38 1     
   31   17   24 ar    
   32   17   18 ar    
   33   18   19 ar    
   34   18   39 1     
   35   19   20 1     
   36   19   21 ar    
   37   21   22 ar    
   38   21   40 1     
   39   22   23 1     
   40   22   24 ar    
   41   24   41 1     
   42   25   26 1     
   43   26   27 ar    
@<TRIPOS>SUBSTRUCTURE
      1 ****           1
@<TRIPOS>SET
DONOR_HYDROGENS      STATIC     ATOMS    <user>   **** ""
4 7 30 14 15
ATOM$RED        STATIC     ATOMS    COLORGROUP SYSTEM
4 7 30 14 15
