#       Name:                4VL
#       Creating user name   gbret
#       Creation time:       Fri Sep  9 00:39:27 2016


#       File generated by GOLD software.
#

@<TRIPOS>MOLECULE
4VL
    42    44     1
SMALL
NO_CHARGES


@<TRIPOS>ATOM
      1 O1           4.7751   2.7973   3.9226 O.3            1 <1>                0.0000
      2 C2           4.7945   1.3684   3.9147 C.3            1 <1>                0.0000
      3 C3           3.3807   0.8468   3.9254 C.ar           1 <1>                0.0000
      4 C4           2.7429   0.6069   5.1295 C.ar           1 <1>                0.0000
      5 C5           1.4458   0.1283   5.1480 C.ar           1 <1>                0.0000
      6 C6           0.7791  -0.1136   3.9611 C.ar           1 <1>                0.0000
      7 F7          -0.4883  -0.5812   3.9794 F              1 <1>                0.0000
      8 C8           1.4185   0.1269   2.7444 C.ar           1 <1>                0.0000
      9 C9           2.7236   0.6150   2.7342 C.ar           1 <1>                0.0000
     10 C10          0.7095  -0.1302   1.4669 C.ar           1 <1>                0.0000
     11 C11          0.0597  -1.3507   1.2493 C.ar           1 <1>                0.0000
     12 C12         -0.5869  -1.5449   0.0450 C.ar           1 <1>                0.0000
     13 C13         -0.5716  -0.5284  -0.9064 C.ar           1 <1>                0.0000
     14 N14          0.0533   0.6148  -0.6688 N.ar           1 <1>                0.0000
     15 C15          0.6766   0.8409   0.4705 C.ar           1 <1>                0.0000
     16 N16         -1.2199  -0.7160  -2.1209 N.3            1 <1>                0.0000
     17 C17         -2.6315  -1.0651  -1.9155 C.3            1 <1>                0.0000
     18 C18         -3.2752  -1.4056  -3.2615 C.3            1 <1>                0.0000
     19 C19         -3.1594  -0.1989  -4.1969 C.3            1 <1>                0.0000
     20 C20         -1.6828   0.1741  -4.3556 C.3            1 <1>                0.0000
     21 C21         -1.0852   0.4688  -2.9779 C.3            1 <1>                0.0000
     22 C22         -3.7381  -0.5484  -5.5438 C.2            1 <1>                0.0000
     23 O23         -4.4063   0.2707  -6.1513 O.co2          1 <1>                0.0000
     24 O24         -3.5380  -1.6502  -6.0259 O.co2          1 <1>                0.0000
     25 H25          5.6530   3.2026   3.9164 H              1 <1>                0.0000
     26 H26          5.3047   1.0169   3.0179 H              1 <1>                0.0000
     27 H27          5.3217   1.0074   4.7978 H              1 <1>                0.0000
     28 H28          3.2604   0.7939   6.0588 H              1 <1>                0.0000
     29 H29          0.9529  -0.0571   6.0909 H              1 <1>                0.0000
     30 H30          3.2233   0.8033   1.7954 H              1 <1>                0.0000
     31 H31          0.0643  -2.1221   2.0051 H              1 <1>                0.0000
     32 H32         -1.0982  -2.4745  -0.1570 H              1 <1>                0.0000
     33 H33          1.1751   1.7858   0.6286 H              1 <1>                0.0000
     34 H34         -2.6996  -1.9271  -1.2519 H              1 <1>                0.0000
     35 H35         -3.1531  -0.2196  -1.4670 H              1 <1>                0.0000
     36 H36         -2.7628  -2.2597  -3.7042 H              1 <1>                0.0000
     37 H37         -4.3268  -1.6494  -3.1106 H              1 <1>                0.0000
     38 H38         -3.7045   0.6444  -3.7729 H              1 <1>                0.0000
     39 H39         -1.1454  -0.6552  -4.8155 H              1 <1>                0.0000
     40 H40         -1.5967   1.0588  -4.9865 H              1 <1>                0.0000
     41 H41         -1.6141   1.3071  -2.5244 H              1 <1>                0.0000
     42 H42         -0.0303   0.7208  -3.0860 H              1 <1>                0.0000
@<TRIPOS>BOND
    1    1    2 1     
    2    1   25 1     
    3    2    3 1     
    4    2   26 1     
    5    2   27 1     
    6    3    9 ar    
    7    3    4 ar    
    8    4    5 ar    
    9    4   28 1     
   10    5    6 ar    
   11    5   29 1     
   12    6    7 1     
   13    6    8 ar    
   14    8    9 ar    
   15    8   10 1     
   16    9   30 1     
   17   10   15 ar    
   18   10   11 ar    
   19   11   12 ar    
   20   11   31 1     
   21   12   13 ar    
   22   12   32 1     
   23   13   14 ar    
   24   13   16 1     
   25   14   15 ar    
   26   15   33 1     
   27   16   21 1     
   28   16   17 1     
   29   17   18 1     
   30   17   34 1     
   31   17   35 1     
   32   18   19 1     
   33   18   36 1     
   34   18   37 1     
   35   19   20 1     
   36   19   22 1     
   37   19   38 1     
   38   20   21 1     
   39   20   39 1     
   40   20   40 1     
   41   21   41 1     
   42   21   42 1     
   43   22   23 ar    
   44   22   24 ar    
@<TRIPOS>SUBSTRUCTURE
      1 ****           1
@<TRIPOS>SET
DONOR_HYDROGENS      STATIC     ATOMS    <user>   **** ""
1 25
ATOM$RED        STATIC     ATOMS    COLORGROUP SYSTEM
1 25
