#       Name:                4XU
#       Creating user name   gbret
#       Creation time:       Fri Sep  9 00:43:27 2016


#       File generated by GOLD software.
#

@<TRIPOS>MOLECULE
4XU
    55    58     1
SMALL
NO_CHARGES


@<TRIPOS>ATOM
      1 C1           0.6276   9.2670  -2.2085 C.3            1 <1>                0.0000
      2 C2           0.6481   7.7601  -2.2168 C.2            1 <1>                0.0000
      3 N3           0.6536   7.0275  -3.2788 N.2            1 <1>                0.0000
      4 C4           0.6728   5.7210  -3.1074 C.2            1 <1>                0.0000
      5 C5           0.6818   4.7478  -4.2580 C.3            1 <1>                0.0000
      6 C6           0.6841   5.3298  -1.8296 C.2            1 <1>                0.0000
      7 C7           0.7064   3.9052  -1.3386 C.3            1 <1>                0.0000
      8 N8           2.0947   3.4630  -1.1858 N.pl3          1 <1>                0.0000
      9 C9           2.3680   2.1789  -0.7432 C.ar           1 <1>                0.0000
     10 N10          1.3776   1.3379  -0.4595 N.ar           1 <1>                0.0000
     11 C11          1.6344   0.1111  -0.0372 C.ar           1 <1>                0.0000
     12 O12          0.6021  -0.7199   0.2428 O.3            1 <1>                0.0000
     13 C13          0.9319  -2.0345   0.6956 C.3            1 <1>                0.0000
     14 C14         -0.3539  -2.8208   0.9590 C.3            1 <1>                0.0000
     15 C15         -0.0008  -4.2283   1.4438 C.3            1 <1>                0.0000
     16 C16         -1.2672  -5.0027   1.7032 C.ar           1 <1>                0.0000
     17 C17         -1.4515  -6.2319   1.0735 C.ar           1 <1>                0.0000
     18 C18         -2.5931  -6.9477   1.2967 C.ar           1 <1>                0.0000
     19 C19         -3.5562  -6.4068   2.1694 C.ar           1 <1>                0.0000
     20 C20         -4.7538  -7.0852   2.4476 C.ar           1 <1>                0.0000
     21 C21         -5.6602  -6.5291   3.2976 C.ar           1 <1>                0.0000
     22 C22         -5.4155  -5.2946   3.8960 C.ar           1 <1>                0.0000
     23 C23         -4.2659  -4.6098   3.6485 C.ar           1 <1>                0.0000
     24 C24         -3.3051  -5.1516   2.7766 C.ar           1 <1>                0.0000
     25 N25         -2.1639  -4.5046   2.5194 N.ar           1 <1>                0.0000
     26 N26          2.8738  -0.3255   0.1185 N.ar           1 <1>                0.0000
     27 C27          3.9107   0.4581  -0.1452 C.ar           1 <1>                0.0000
     28 Cl28         5.5308  -0.1293   0.0640 Cl             1 <1>                0.0000
     29 C29          3.6864   1.7472  -0.5940 C.ar           1 <1>                0.0000
     30 C30          4.8390   2.6672  -0.9041 C.3            1 <1>                0.0000
     31 S31          0.6747   6.7741  -0.8203 S.3            1 <1>                0.0000
     32 H32          1.6502   9.6443  -2.2162 H              1 <1>                0.0000
     33 H33          0.1005   9.6281  -3.0916 H              1 <1>                0.0000
     34 H34          0.1174   9.6185  -1.3117 H              1 <1>                0.0000
     35 H35          1.7115   4.5280  -4.5399 H              1 <1>                0.0000
     36 H36          0.1826   3.8263  -3.9583 H              1 <1>                0.0000
     37 H37          0.1578   5.1851  -5.1078 H              1 <1>                0.0000
     38 H38          0.1978   3.8445  -0.3765 H              1 <1>                0.0000
     39 H39          0.1983   3.2645  -2.0593 H              1 <1>                0.0000
     40 H40          2.8226   4.0693  -1.3945 H              1 <1>                0.0000
     41 H41          1.5200  -2.5447  -0.0672 H              1 <1>                0.0000
     42 H42          1.5115  -1.9669   1.6163 H              1 <1>                0.0000
     43 H43         -0.9420  -2.3106   1.7218 H              1 <1>                0.0000
     44 H44         -0.9334  -2.8884   0.0383 H              1 <1>                0.0000
     45 H45          0.5873  -4.7385   0.6810 H              1 <1>                0.0000
     46 H46          0.5788  -4.1607   2.3645 H              1 <1>                0.0000
     47 H47         -0.6926  -6.6181   0.4092 H              1 <1>                0.0000
     48 H48         -2.7526  -7.9019   0.8167 H              1 <1>                0.0000
     49 H49         -4.9548  -8.0424   1.9896 H              1 <1>                0.0000
     50 H50         -6.5812  -7.0514   3.5107 H              1 <1>                0.0000
     51 H51         -6.1502  -4.8743   4.5667 H              1 <1>                0.0000
     52 H52         -4.0922  -3.6538   4.1199 H              1 <1>                0.0000
     53 H53          5.1244   2.5523  -1.9498 H              1 <1>                0.0000
     54 H54          4.5398   3.6991  -0.7204 H              1 <1>                0.0000
     55 H55          5.6865   2.4156  -0.2664 H              1 <1>                0.0000
@<TRIPOS>BOND
    1    1    2 1     
    2    1   32 1     
    3    1   33 1     
    4    1   34 1     
    5    2   31 1     
    6    2    3 2     
    7    3    4 1     
    8    4    5 1     
    9    4    6 2     
   10    5   35 1     
   11    5   36 1     
   12    5   37 1     
   13    6    7 1     
   14    6   31 1     
   15    7    8 1     
   16    7   38 1     
   17    7   39 1     
   18    8    9 1     
   19    8   40 1     
   20    9   29 ar    
   21    9   10 ar    
   22   10   11 ar    
   23   11   12 1     
   24   11   26 ar    
   25   12   13 1     
   26   13   14 1     
   27   13   41 1     
   28   13   42 1     
   29   14   15 1     
   30   14   43 1     
   31   14   44 1     
   32   15   16 1     
   33   15   45 1     
   34   15   46 1     
   35   16   25 ar    
   36   16   17 ar    
   37   17   18 ar    
   38   17   47 1     
   39   18   19 ar    
   40   18   48 1     
   41   19   24 ar    
   42   19   20 ar    
   43   20   21 ar    
   44   20   49 1     
   45   21   22 ar    
   46   21   50 1     
   47   22   23 ar    
   48   22   51 1     
   49   23   24 ar    
   50   23   52 1     
   51   24   25 ar    
   52   26   27 ar    
   53   27   28 1     
   54   27   29 ar    
   55   29   30 1     
   56   30   53 1     
   57   30   54 1     
   58   30   55 1     
@<TRIPOS>SUBSTRUCTURE
      1 ****           1
@<TRIPOS>SET
DONOR_HYDROGENS      STATIC     ATOMS    <user>   **** ""
1 40
ATOM$RED        STATIC     ATOMS    COLORGROUP SYSTEM
1 40
