#       Name:                4Y8
#       Creating user name   gbret
#       Creation time:       Fri Sep  9 00:44:16 2016


#       File generated by GOLD software.
#

@<TRIPOS>MOLECULE
4Y8
    11    10     1
SMALL
NO_CHARGES


@<TRIPOS>ATOM
      1 C1          -0.0146   1.5112   0.6353 C.3            1 <1>                0.0000
      2 C2           0.0059   0.0043   0.6270 C.2            1 <1>                0.0000
      3 O3           0.0240  -0.6050   1.6694 O.2            1 <1>                0.0000
      4 C4           0.0036  -0.7421  -0.6821 C.3            1 <1>                0.0000
      5 O5           0.0252  -2.1483  -0.4288 O.3            1 <1>                0.0000
      6 H6           1.0080   1.8885   0.6276 H              1 <1>                0.0000
      7 H7          -0.5417   1.8723  -0.2478 H              1 <1>                0.0000
      8 H8          -0.5248   1.8627   1.5321 H              1 <1>                0.0000
      9 H9          -0.8953  -0.4878  -1.2438 H              1 <1>                0.0000
     10 H10          0.8845  -0.4636  -1.2607 H              1 <1>                0.0000
     11 H11          0.0250  -2.6920  -1.2284 H              1 <1>                0.0000
@<TRIPOS>BOND
    1    1    2 1     
    2    1    6 1     
    3    1    7 1     
    4    1    8 1     
    5    2    3 2     
    6    2    4 1     
    7    4    5 1     
    8    4    9 1     
    9    4   10 1     
   10    5   11 1     
@<TRIPOS>SUBSTRUCTURE
      1 ****           1
@<TRIPOS>SET
DONOR_HYDROGENS      STATIC     ATOMS    <user>   **** ""
1 11
ATOM$RED        STATIC     ATOMS    COLORGROUP SYSTEM
1 11
