#       Name:                4YQ
#       Creating user name   gbret
#       Creation time:       Fri Sep  9 00:45:15 2016


#       File generated by GOLD software.
#

@<TRIPOS>MOLECULE
4YQ
    52    56     1
SMALL
NO_CHARGES


@<TRIPOS>ATOM
      1 O1           6.4297   4.2423   0.1796 O.3            1 <1>                0.0000
      2 C2           6.4491   2.8134   0.1717 C.3            1 <1>                0.0000
      3 C3           5.0137   2.2839   0.1826 C.3            1 <1>                0.0000
      4 O4           4.3581   2.6597  -1.0303 O.3            1 <1>                0.0000
      5 C5           3.0725   2.2667  -1.1807 C.2            1 <1>                0.0000
      6 N6           2.3373   2.5206  -2.2225 N.2            1 <1>                0.0000
      7 C7           1.1084   2.0690  -2.2148 C.2            1 <1>                0.0000
      8 C8           0.1463   2.2884  -3.3538 C.3            1 <1>                0.0000
      9 C9           0.5775   3.2434  -4.4687 C.3            1 <1>                0.0000
     10 C10          0.5378   1.7356  -4.7257 C.3            1 <1>                0.0000
     11 C11          0.7760   1.3804  -1.0819 C.2            1 <1>                0.0000
     12 S12          2.1901   1.3606  -0.0310 S.3            1 <1>                0.0000
     13 C13         -0.5204   0.7654  -0.7954 C.2            1 <1>                0.0000
     14 O14         -1.4240   0.8437  -1.6073 O.2            1 <1>                0.0000
     15 N15         -0.7141   0.1123   0.3675 N.am           1 <1>                0.0000
     16 C16         -2.0121  -0.5035   0.6544 C.3            1 <1>                0.0000
     17 C17         -2.0631  -1.8998   0.0310 C.3            1 <1>                0.0000
     18 C18         -0.9471  -2.7634   0.6223 C.3            1 <1>                0.0000
     19 C19         -1.1357  -2.8738   2.1366 C.3            1 <1>                0.0000
     20 C20         -1.0846  -1.4775   2.7600 C.3            1 <1>                0.0000
     21 C21         -2.2006  -0.6138   2.1688 C.3            1 <1>                0.0000
     22 C22         -3.5562  -1.2569   2.4684 C.3            1 <1>                0.0000
     23 C23         -3.6072  -2.6532   1.8450 C.3            1 <1>                0.0000
     24 O24         -4.8733  -3.2538   2.1249 O.3            1 <1>                0.0000
     25 C25         -2.4912  -3.5168   2.4363 C.3            1 <1>                0.0000
     26 C26         -3.4187  -2.5428   0.3307 C.3            1 <1>                0.0000
     27 H27          7.3076   4.6476   0.1734 H              1 <1>                0.0000
     28 H28          6.9593   2.4619  -0.7251 H              1 <1>                0.0000
     29 H29          6.9763   2.4524   1.0548 H              1 <1>                0.0000
     30 H30          5.0280   1.1972   0.2662 H              1 <1>                0.0000
     31 H31          4.4769   2.7066   1.0318 H              1 <1>                0.0000
     32 H32         -0.9103   2.2703  -3.0868 H              1 <1>                0.0000
     33 H33         -0.1956   3.8539  -4.9354 H              1 <1>                0.0000
     34 H34          1.5570   3.7129  -4.3784 H              1 <1>                0.0000
     35 H35          1.4912   1.2132  -4.8044 H              1 <1>                0.0000
     36 H36         -0.2613   1.3542  -5.3614 H              1 <1>                0.0000
     37 H37          0.0059   0.0499   1.0145 H              1 <1>                0.0000
     38 H38         -2.8072   0.1118   0.2332 H              1 <1>                0.0000
     39 H39         -1.9288  -1.8211  -1.0478 H              1 <1>                0.0000
     40 H40         -0.9835  -3.7581   0.1782 H              1 <1>                0.0000
     41 H41          0.0186  -2.3053   0.4088 H              1 <1>                0.0000
     42 H42         -0.3406  -3.4890   2.5579 H              1 <1>                0.0000
     43 H43         -1.2189  -1.5561   3.8389 H              1 <1>                0.0000
     44 H44         -0.1189  -1.0193   2.5466 H              1 <1>                0.0000
     45 H45         -2.1643   0.3809   2.6129 H              1 <1>                0.0000
     46 H46         -3.6905  -1.3355   3.5472 H              1 <1>                0.0000
     47 H47         -4.3513  -0.6416   2.0472 H              1 <1>                0.0000
     48 H48         -4.9764  -4.1430   1.7589 H              1 <1>                0.0000
     49 H49         -2.5276  -4.5116   1.9921 H              1 <1>                0.0000
     50 H50         -2.6256  -3.5955   3.5151 H              1 <1>                0.0000
     51 H51         -4.2138  -1.9276  -0.0906 H              1 <1>                0.0000
     52 H52         -3.4551  -3.5376  -0.1135 H              1 <1>                0.0000
@<TRIPOS>BOND
    1    1    2 1     
    2    1   27 1     
    3    2    3 1     
    4    2   28 1     
    5    2   29 1     
    6    3    4 1     
    7    3   30 1     
    8    3   31 1     
    9    4    5 1     
   10    5   12 1     
   11    5    6 2     
   12    6    7 1     
   13    7    8 1     
   14    7   11 2     
   15    8   10 1     
   16    8    9 1     
   17    8   32 1     
   18    9   10 1     
   19    9   33 1     
   20    9   34 1     
   21   10   35 1     
   22   10   36 1     
   23   11   12 1     
   24   11   13 1     
   25   13   14 2     
   26   13   15 am    
   27   15   16 1     
   28   15   37 1     
   29   16   21 1     
   30   16   17 1     
   31   16   38 1     
   32   17   26 1     
   33   17   18 1     
   34   17   39 1     
   35   18   19 1     
   36   18   40 1     
   37   18   41 1     
   38   19   25 1     
   39   19   20 1     
   40   19   42 1     
   41   20   21 1     
   42   20   43 1     
   43   20   44 1     
   44   21   22 1     
   45   21   45 1     
   46   22   23 1     
   47   22   46 1     
   48   22   47 1     
   49   23   24 1     
   50   23   25 1     
   51   23   26 1     
   52   24   48 1     
   53   25   49 1     
   54   25   50 1     
   55   26   51 1     
   56   26   52 1     
@<TRIPOS>SUBSTRUCTURE
      1 ****           1
@<TRIPOS>SET
DONOR_HYDROGENS      STATIC     ATOMS    <user>   **** ""
3 27 37 48
ATOM$RED        STATIC     ATOMS    COLORGROUP SYSTEM
3 27 37 48
