#	Name:			4YR
#	Creating user name:	drognan
#	Creation time:		Wed Sep  5 12:09:46 2018


#	Modifying user name:	drognan
#	Modification time:	Wed Sep  5 12:09:46 2018

@<TRIPOS>MOLECULE
4YR
  33   37    0    0    0
SMALL
NO_CHARGES


@<TRIPOS>ATOM
   1 C1            -0.0166     1.3749     0.0096 C.ar    
   2 C2             1.1694     2.0931     0.0021 C.ar    
   3 C3             2.3865     1.4416    -0.0130 C.ar    
   4 C4             2.4252     0.0557    -0.0208 C.ar    
   5 C5             1.2234    -0.6735    -0.0133 C.ar    
   6 C6             0.0021    -0.0041     0.0020 C.ar    
   7 C7             1.3009    -2.1453    -0.0214 C.2     
   8 O8             0.2913    -2.8230    -0.0158 O.2     
   9 N9             2.5223    -2.7219    -0.0358 N.am    
  10 C10            3.6419    -1.9818    -0.0425 C.2     
  11 O11            4.7159    -2.5515    -0.0555 O.2     
  12 N12            3.6268    -0.6377    -0.0356 N.am    
  13 C13            4.8912     0.1021    -0.0442 C.3     
  14 C14            5.3109     0.3629    -1.4679 C.ar    
  15 C15            6.1045    -0.5565    -2.1328 C.ar    
  16 C16            6.4948    -0.3267    -3.4384 C.ar    
  17 C17            6.0936     0.8256    -4.0902 C.ar    
  18 C18            5.2918     1.7571    -3.4236 C.ar    
  19 C19            4.8987     1.5134    -2.1058 C.ar    
  20 C20            4.8589     2.9905    -4.1112 C.2     
  21 O21            5.1997     3.1978    -5.2596 O.2     
  22 N22            4.0861     3.8861    -3.4655 N.am    
  23 C23            3.6566     5.1095    -4.1475 C.3     
  24 H24            3.4902     4.9130    -5.2066 H       
  25 C25            4.7138     6.2232    -3.9680 C.3     
  26 C26            3.8488     7.4925    -3.7649 C.3     
  27 N27            2.7057     6.9987    -2.9551 N.3     
  28 C28            2.3738     5.6612    -3.4983 C.3     
  29 C29            1.5561     7.9075    -3.0582 C.3     
  30 C30            0.9616     7.8204    -4.4653 C.3     
  31 C31           -0.4693     7.2950    -4.5963 C.3     
  32 C32           -0.1774     8.7814    -4.8117 C.3     
  33 F33            6.4756     1.0503    -5.3664 F       
@<TRIPOS>BOND
   1    1    6 ar
   2    1    2 ar
   3    2    3 ar
   4    3    4 ar
   5    4   12 1
   6    4    5 ar
   7    5    6 ar
   8    5    7 1
   9    7    8 2
  10    7    9 am
  11    9   10 am
  12   10   11 2
  13   10   12 am
  14   12   13 1
  15   13   14 1
  16   14   19 ar
  17   14   15 ar
  18   15   16 ar
  19   16   17 ar
  20   17   18 ar
  21   17   33 1
  22   18   19 ar
  23   18   20 1
  24   20   21 2
  25   20   22 am
  26   22   23 1
  27   23   24 1
  28   23   28 1
  29   23   25 1
  30   25   26 1
  31   26   27 1
  32   27   28 1
  33   27   29 1
  34   29   30 1
  35   30   32 1
  36   30   31 1
  37   31   32 1





