#       Name:                50B
#       Creating user name   gbret
#       Creation time:       Fri Sep  9 00:47:48 2016


#       File generated by GOLD software.
#

@<TRIPOS>MOLECULE
50B
    75    81     1
SMALL
NO_CHARGES


@<TRIPOS>ATOM
      1 C1           6.0415   4.1090   0.3234 C.3            1 <1>                0.0000
      2 O2           6.1206   2.6927   0.1506 O.3            1 <1>                0.0000
      3 C3           4.9937   1.9757   0.4057 C.ar           1 <1>                0.0000
      4 C4           3.8356   2.6323   0.8203 C.ar           1 <1>                0.0000
      5 C5           2.6850   1.9433   1.0718 C.ar           1 <1>                0.0000
      6 C6           2.6521   0.5520   0.9105 C.ar           1 <1>                0.0000
      7 C7           1.4826  -0.2106   1.0974 C.ar           1 <1>                0.0000
      8 C8           0.1699   0.5105   1.2863 C.3            1 <1>                0.0000
      9 C9          -0.4203   0.8618  -0.0808 C.3            1 <1>                0.0000
     10 C10         -1.7508   1.5927   0.1106 C.3            1 <1>                0.0000
     11 C11         -2.3410   1.9440  -1.2565 C.3            1 <1>                0.0000
     12 C12         -2.6852   0.6766  -1.9958 C.ar           1 <1>                0.0000
     13 C13         -2.2121   0.4747  -3.2789 C.ar           1 <1>                0.0000
     14 C14         -2.5277  -0.6878  -3.9570 C.ar           1 <1>                0.0000
     15 C15         -3.3161  -1.6486  -3.3518 C.ar           1 <1>                0.0000
     16 C16         -3.7884  -1.4471  -2.0684 C.ar           1 <1>                0.0000
     17 C17         -3.4692  -0.2865  -1.3887 C.ar           1 <1>                0.0000
     18 C18         -3.5874   2.7699  -1.0683 C.ar           1 <1>                0.0000
     19 C19         -4.5889   2.3275  -0.2245 C.ar           1 <1>                0.0000
     20 C20         -5.7322   3.0851  -0.0518 C.ar           1 <1>                0.0000
     21 C21         -5.8737   4.2855  -0.7227 C.ar           1 <1>                0.0000
     22 C22         -4.8718   4.7284  -1.5659 C.ar           1 <1>                0.0000
     23 C23         -3.7267   3.9728  -1.7352 C.ar           1 <1>                0.0000
     24 C24          1.5540  -1.5859   1.0489 C.ar           1 <1>                0.0000
     25 C25          0.4324  -2.4585   1.4815 C.ar           1 <1>                0.0000
     26 C26         -0.4301  -2.0764   2.5160 C.ar           1 <1>                0.0000
     27 C27         -1.4938  -2.9111   2.8107 C.ar           1 <1>                0.0000
     28 O28         -2.5012  -2.7874   3.6999 O.3            1 <1>                0.0000
     29 C29         -3.0324  -4.1046   3.9166 C.3            1 <1>                0.0000
     30 O30         -2.7951  -4.7007   2.6303 O.3            1 <1>                0.0000
     31 C31         -1.6736  -4.1341   2.1412 C.ar           1 <1>                0.0000
     32 C32         -0.7618  -4.5661   1.1906 C.ar           1 <1>                0.0000
     33 C33          0.2948  -3.7204   0.8987 C.ar           1 <1>                0.0000
     34 C34          1.3738  -4.1910  -0.0506 C.3            1 <1>                0.0000
     35 C35          2.7114  -3.6482   0.4628 C.3            1 <1>                0.0000
     36 N36          2.6897  -2.1887   0.6457 N.pl3          1 <1>                0.0000
     37 C37          3.7938  -1.5258   0.3969 C.ar           1 <1>                0.0000
     38 C38          3.8360  -0.1311   0.5202 C.ar           1 <1>                0.0000
     39 C39          5.0071   0.6016   0.2567 C.ar           1 <1>                0.0000
     40 O40          6.1421  -0.0308  -0.1433 O.3            1 <1>                0.0000
     41 C41          6.3283  -0.2017  -1.5497 C.3            1 <1>                0.0000
     42 H42          7.0062   4.5583   0.0876 H              1 <1>                0.0000
     43 H43          5.2795   4.5143  -0.3425 H              1 <1>                0.0000
     44 H44          5.7783   4.3349   1.3567 H              1 <1>                0.0000
     45 H45          3.8474   3.7047   0.9498 H              1 <1>                0.0000
     46 H46          1.8151   2.4921   1.4011 H              1 <1>                0.0000
     47 H47         -0.5238  -0.1334   1.8270 H              1 <1>                0.0000
     48 H48          0.3363   1.4247   1.8560 H              1 <1>                0.0000
     49 H49          0.2734   1.5056  -0.6215 H              1 <1>                0.0000
     50 H50         -0.5867  -0.0525  -0.6505 H              1 <1>                0.0000
     51 H51         -2.4445   0.9488   0.6513 H              1 <1>                0.0000
     52 H52         -1.5844   2.5069   0.6803 H              1 <1>                0.0000
     53 H53         -1.6112   2.5135  -1.8319 H              1 <1>                0.0000
     54 H54         -1.5962   1.2254  -3.7517 H              1 <1>                0.0000
     55 H55         -2.1587  -0.8452  -4.9597 H              1 <1>                0.0000
     56 H56         -3.5633  -2.5565  -3.8819 H              1 <1>                0.0000
     57 H57         -4.4046  -2.1976  -1.5957 H              1 <1>                0.0000
     58 H58         -3.8382  -0.1291  -0.3860 H              1 <1>                0.0000
     59 H59         -4.4783   1.3897   0.2997 H              1 <1>                0.0000
     60 H60         -6.5149   2.7391   0.6069 H              1 <1>                0.0000
     61 H61         -6.7672   4.8771  -0.5884 H              1 <1>                0.0000
     62 H62         -4.9825   5.6660  -2.0903 H              1 <1>                0.0000
     63 H63         -2.9439   4.3188  -2.3939 H              1 <1>                0.0000
     64 H64         -0.2632  -1.1900   3.1114 H              1 <1>                0.0000
     65 H65         -2.4824  -4.6266   4.6984 H              1 <1>                0.0000
     66 H66         -4.0976  -4.0671   4.1410 H              1 <1>                0.0000
     67 H67         -0.8715  -5.5221   0.6995 H              1 <1>                0.0000
     68 H68          1.4027  -5.2769  -0.0649 H              1 <1>                0.0000
     69 H69          1.1817  -3.8022  -1.0471 H              1 <1>                0.0000
     70 H70          2.9326  -4.1168   1.4192 H              1 <1>                0.0000
     71 H71          3.4900  -3.9028  -0.2513 H              1 <1>                0.0000
     72 H72          4.6810  -2.0624   0.0922 H              1 <1>                0.0000
     73 H73          7.2704  -0.7190  -1.7313 H              1 <1>                0.0000
     74 H74          5.5061  -0.7906  -1.9562 H              1 <1>                0.0000
     75 H75          6.3505   0.7744  -2.0345 H              1 <1>                0.0000
@<TRIPOS>BOND
    1    1    2 1     
    2    1   42 1     
    3    1   43 1     
    4    1   44 1     
    5    2    3 1     
    6    3   39 ar    
    7    3    4 ar    
    8    4    5 ar    
    9    4   45 1     
   10    5    6 ar    
   11    5   46 1     
   12    6   38 ar    
   13    6    7 ar    
   14    7    8 1     
   15    7   24 ar    
   16    8    9 1     
   17    8   47 1     
   18    8   48 1     
   19    9   10 1     
   20    9   49 1     
   21    9   50 1     
   22   10   11 1     
   23   10   51 1     
   24   10   52 1     
   25   11   12 1     
   26   11   18 1     
   27   11   53 1     
   28   12   17 ar    
   29   12   13 ar    
   30   13   14 ar    
   31   13   54 1     
   32   14   15 ar    
   33   14   55 1     
   34   15   16 ar    
   35   15   56 1     
   36   16   17 ar    
   37   16   57 1     
   38   17   58 1     
   39   18   23 ar    
   40   18   19 ar    
   41   19   20 ar    
   42   19   59 1     
   43   20   21 ar    
   44   20   60 1     
   45   21   22 ar    
   46   21   61 1     
   47   22   23 ar    
   48   22   62 1     
   49   23   63 1     
   50   24   36 ar    
   51   24   25 1     
   52   25   33 ar    
   53   25   26 ar    
   54   26   27 ar    
   55   26   64 1     
   56   27   31 ar    
   57   27   28 1     
   58   28   29 1     
   59   29   30 1     
   60   29   65 1     
   61   29   66 1     
   62   30   31 1     
   63   31   32 ar    
   64   32   33 ar    
   65   32   67 1     
   66   33   34 1     
   67   34   35 1     
   68   34   68 1     
   69   34   69 1     
   70   35   36 1     
   71   35   70 1     
   72   35   71 1     
   73   36   37 ar    
   74   37   38 ar    
   75   37   72 1     
   76   38   39 ar    
   77   39   40 1     
   78   40   41 1     
   79   41   73 1     
   80   41   74 1     
   81   41   75 1     
@<TRIPOS>SUBSTRUCTURE
      1 ****           1
