#       Name:                51K
#       Creating user name   gbret
#       Creation time:       Fri Sep  9 00:50:33 2016


#       File generated by GOLD software.
#

@<TRIPOS>MOLECULE
51K
    35    37     1
SMALL
NO_CHARGES


@<TRIPOS>ATOM
      1 F1           2.4091  -4.9389  -3.5880 F              1 <1>                0.0000
      2 C2           2.3901  -3.5400  -3.5803 C.3            1 <1>                0.0000
      3 F3           3.7026  -3.0558  -3.5902 F              1 <1>                0.0000
      4 F4           1.7135  -3.0766  -4.7137 F              1 <1>                0.0000
      5 C5           1.6847  -3.0540  -2.3404 C.ar           1 <1>                0.0000
      6 C6           1.5381  -1.6999  -2.1174 C.ar           1 <1>                0.0000
      7 C7           0.8857  -1.2519  -0.9706 C.ar           1 <1>                0.0000
      8 C8           0.3847  -2.1748  -0.0549 C.ar           1 <1>                0.0000
      9 C9           0.5370  -3.5267  -0.2879 C.ar           1 <1>                0.0000
     10 C10          1.1805  -3.9659  -1.4308 C.ar           1 <1>                0.0000
     11 C11         -0.0039  -4.5261   0.7020 C.3            1 <1>                0.0000
     12 F12         -1.3209  -4.8534   0.3618 F              1 <1>                0.0000
     13 F13          0.7850  -5.6811   0.6768 F              1 <1>                0.0000
     14 F14          0.0220  -3.9715   1.9861 F              1 <1>                0.0000
     15 C15          0.7254   0.2029  -0.7252 C.2            1 <1>                0.0000
     16 N16          1.1571   1.1828  -1.5304 N.2            1 <1>                0.0000
     17 C17          0.8520   2.3447  -1.0159 C.2            1 <1>                0.0000
     18 N18          0.2088   2.1357   0.1470 N.pl3          1 <1>                0.0000
     19 C19         -0.3137   3.1591   1.0557 C.3            1 <1>                0.0000
     20 C20         -1.8015   2.9063   1.3072 C.3            1 <1>                0.0000
     21 C21         -2.3390   3.9591   2.2420 C.2            1 <1>                0.0000
     22 N22         -2.8612   5.1018   1.8976 N.2            1 <1>                0.0000
     23 N23         -3.2129   5.7463   2.9542 N.2            1 <1>                0.0000
     24 C24         -2.9270   5.0367   4.0086 C.2            1 <1>                0.0000
     25 O25         -2.3728   3.8889   3.5833 O.3            1 <1>                0.0000
     26 N26          0.1312   0.7437   0.3157 N.2            1 <1>                0.0000
     27 H27          1.9286  -0.9888  -2.8303 H              1 <1>                0.0000
     28 H28         -0.1215  -1.8330   0.8358 H              1 <1>                0.0000
     29 H29          1.2975  -5.0246  -1.6092 H              1 <1>                0.0000
     30 H30          1.0776   3.3076  -1.4499 H              1 <1>                0.0000
     31 H31          0.2271   3.1159   2.0011 H              1 <1>                0.0000
     32 H32         -0.1832   4.1440   0.6072 H              1 <1>                0.0000
     33 H33         -2.3423   2.9495   0.3618 H              1 <1>                0.0000
     34 H34         -1.9319   1.9214   1.7557 H              1 <1>                0.0000
     35 H35         -3.1062   5.3177   5.0359 H              1 <1>                0.0000
@<TRIPOS>BOND
    1    1    2 1     
    2    2    3 1     
    3    2    4 1     
    4    2    5 1     
    5    5   10 ar    
    6    5    6 ar    
    7    6    7 ar    
    8    6   27 1     
    9    7    8 ar    
   10    7   15 1     
   11    8    9 ar    
   12    8   28 1     
   13    9   10 ar    
   14    9   11 1     
   15   10   29 1     
   16   11   12 1     
   17   11   13 1     
   18   11   14 1     
   19   15   26 2     
   20   15   16 1     
   21   16   17 2     
   22   17   18 1     
   23   17   30 1     
   24   18   19 1     
   25   18   26 1     
   26   19   20 1     
   27   19   31 1     
   28   19   32 1     
   29   20   21 1     
   30   20   33 1     
   31   20   34 1     
   32   21   25 1     
   33   21   22 2     
   34   22   23 1     
   35   23   24 2     
   36   24   25 1     
   37   24   35 1     
@<TRIPOS>SUBSTRUCTURE
      1 ****           1
