#       Name:                527
#       Creating user name   gbret
#       Creation time:       Fri Sep  9 00:51:46 2016


#       File generated by GOLD software.
#

@<TRIPOS>MOLECULE
527
    60    63     1
SMALL
NO_CHARGES


@<TRIPOS>ATOM
      1 O1           4.5065  -5.4527  -6.7952 O.co2          1 <1>                0.0000
      2 C2           4.7798  -6.1974  -5.8693 C.2            1 <1>                0.0000
      3 O3           4.8828  -7.3969  -6.0618 O.co2          1 <1>                0.0000
      4 C4           4.9964  -5.6345  -4.4883 C.3            1 <1>                0.0000
      5 O5           4.8279  -4.2159  -4.5203 O.3            1 <1>                0.0000
      6 C6           4.9899  -3.5495  -3.3490 C.2            1 <1>                0.0000
      7 C7           3.9556  -3.3173  -2.4761 C.2            1 <1>                0.0000
      8 Br8          2.1889  -3.9024  -2.8110 Br             1 <1>                0.0000
      9 C9           4.3017  -2.6325  -1.3488 C.2            1 <1>                0.0000
     10 S10          6.0185  -2.2561  -1.3799 S.3            1 <1>                0.0000
     11 C11          6.2055  -3.0554  -2.9347 C.2            1 <1>                0.0000
     12 C12          7.4143  -3.1672  -3.6505 C.2            1 <1>                0.0000
     13 O13          8.5339  -2.6420  -3.1537 O.co2          1 <1>                0.0000
     14 O14          7.4379  -3.7980  -4.8242 O.co2          1 <1>                0.0000
     15 C15          3.3712  -2.2613  -0.2623 C.ar           1 <1>                0.0000
     16 C16          3.7161  -2.5041   1.0690 C.ar           1 <1>                0.0000
     17 C17          2.8458  -2.1562   2.0816 C.ar           1 <1>                0.0000
     18 C18          1.6312  -1.5669   1.7837 C.ar           1 <1>                0.0000
     19 C19          1.2784  -1.3209   0.4619 C.ar           1 <1>                0.0000
     20 N20          0.0498  -0.7253   0.1661 N.pl3          1 <1>                0.0000
     21 C21         -0.8667  -0.3599   1.2490 C.3            1 <1>                0.0000
     22 C22         -0.4916   1.0216   1.7901 C.3            1 <1>                0.0000
     23 C23         -1.4301   1.3853   2.9450 C.3            1 <1>                0.0000
     24 N24         -2.8188   1.2770   2.4778 N.pl3          1 <1>                0.0000
     25 C25         -3.2594   0.0201   1.8573 C.3            1 <1>                0.0000
     26 C26         -2.3004  -0.3283   0.7146 C.3            1 <1>                0.0000
     27 S27         -3.8678   2.5471   2.6479 S.o2           1 <1>                0.0000
     28 O28         -5.1508   1.9381   2.6943 O.2            1 <1>                0.0000
     29 O29         -3.3611   3.2737   3.7589 O.2            1 <1>                0.0000
     30 C30         -3.6721   3.5036   1.1190 C.3            1 <1>                0.0000
     31 C31         -4.5868   4.7007   1.1549 C.ar           1 <1>                0.0000
     32 C32         -5.8742   4.6019   0.6613 C.ar           1 <1>                0.0000
     33 C33         -6.7132   5.7000   0.6942 C.ar           1 <1>                0.0000
     34 C34         -6.2650   6.8968   1.2211 C.ar           1 <1>                0.0000
     35 C35         -4.9778   6.9953   1.7155 C.ar           1 <1>                0.0000
     36 C36         -4.1402   5.8960   1.6865 C.ar           1 <1>                0.0000
     37 C37          2.1482  -1.6620  -0.5628 C.ar           1 <1>                0.0000
     38 H38          4.2722  -6.0710  -3.8003 H              1 <1>                0.0000
     39 H39          6.0057  -5.8731  -4.1528 H              1 <1>                0.0000
     40 H40          4.6639  -2.9645   1.3059 H              1 <1>                0.0000
     41 H41          3.1143  -2.3451   3.1105 H              1 <1>                0.0000
     42 H42          0.9541  -1.2971   2.5806 H              1 <1>                0.0000
     43 H43         -0.1964  -0.5537  -0.7563 H              1 <1>                0.0000
     44 H44         -0.7939  -1.0955   2.0501 H              1 <1>                0.0000
     45 H45          0.5375   1.0045   2.1491 H              1 <1>                0.0000
     46 H46         -0.5881   1.7619   0.9959 H              1 <1>                0.0000
     47 H47         -1.2696   0.6989   3.7763 H              1 <1>                0.0000
     48 H48         -1.2321   2.4071   3.2687 H              1 <1>                0.0000
     49 H49         -3.2481  -0.7776   2.5999 H              1 <1>                0.0000
     50 H50         -4.2685   0.1412   1.4633 H              1 <1>                0.0000
     51 H51         -2.3799   0.4247  -0.0695 H              1 <1>                0.0000
     52 H52         -2.5588  -1.3061   0.3082 H              1 <1>                0.0000
     53 H53         -2.6387   3.8385   1.0297 H              1 <1>                0.0000
     54 H54         -3.9264   2.8775   0.2637 H              1 <1>                0.0000
     55 H55         -6.2245   3.6669   0.2497 H              1 <1>                0.0000
     56 H56         -7.7189   5.6230   0.3080 H              1 <1>                0.0000
     57 H57         -6.9202   7.7549   1.2462 H              1 <1>                0.0000
     58 H58         -4.6275   7.9305   2.1269 H              1 <1>                0.0000
     59 H59         -3.1346   5.9730   2.0728 H              1 <1>                0.0000
     60 H60          1.8760  -1.4717  -1.5904 H              1 <1>                0.0000
@<TRIPOS>BOND
    1    1    2 ar    
    2    2    3 ar    
    3    2    4 1     
    4    4    5 1     
    5    4   38 1     
    6    4   39 1     
    7    5    6 1     
    8    6   11 2     
    9    6    7 1     
   10    7    8 1     
   11    7    9 2     
   12    9   10 1     
   13    9   15 1     
   14   10   11 1     
   15   11   12 1     
   16   12   13 ar    
   17   12   14 ar    
   18   15   37 ar    
   19   15   16 ar    
   20   16   17 ar    
   21   16   40 1     
   22   17   18 ar    
   23   17   41 1     
   24   18   19 ar    
   25   18   42 1     
   26   19   20 1     
   27   19   37 ar    
   28   20   21 1     
   29   20   43 1     
   30   21   26 1     
   31   21   22 1     
   32   21   44 1     
   33   22   23 1     
   34   22   45 1     
   35   22   46 1     
   36   23   24 1     
   37   23   47 1     
   38   23   48 1     
   39   24   25 1     
   40   24   27 1     
   41   25   26 1     
   42   25   49 1     
   43   25   50 1     
   44   26   51 1     
   45   26   52 1     
   46   27   28 2     
   47   27   29 2     
   48   27   30 1     
   49   30   31 1     
   50   30   53 1     
   51   30   54 1     
   52   31   36 ar    
   53   31   32 ar    
   54   32   33 ar    
   55   32   55 1     
   56   33   34 ar    
   57   33   56 1     
   58   34   35 ar    
   59   34   57 1     
   60   35   36 ar    
   61   35   58 1     
   62   36   59 1     
   63   37   60 1     
@<TRIPOS>SUBSTRUCTURE
      1 ****           1
@<TRIPOS>SET
DONOR_HYDROGENS      STATIC     ATOMS    <user>   **** ""
1 43
ATOM$RED        STATIC     ATOMS    COLORGROUP SYSTEM
1 43
