#       Name:                528
#       Creating user name   gbret
#       Creation time:       Fri Sep  9 00:51:51 2016


#       File generated by GOLD software.
#

@<TRIPOS>MOLECULE
528
    65    66     1
SMALL
NO_CHARGES


@<TRIPOS>ATOM
      1 C1           3.2046  -0.8513  -2.2519 C.3            1 <1>                0.0000
      2 C2           2.3485   0.0570  -1.3670 C.3            1 <1>                0.0000
      3 C3           2.4004   1.4886  -1.9045 C.3            1 <1>                0.0000
      4 C4           0.9012  -0.4391  -1.3762 C.3            1 <1>                0.0000
      5 N5           0.4264  -0.5344  -2.7589 N.pl3          1 <1>                0.0000
      6 S6          -1.0235   0.1427  -3.1850 S.o2           1 <1>                0.0000
      7 O7          -1.1220  -0.0910  -4.5832 O.2            1 <1>                0.0000
      8 O8          -1.9570  -0.4291  -2.2790 O.2            1 <1>                0.0000
      9 C9          -0.8126   1.9128  -2.8489 C.3            1 <1>                0.0000
     10 C10         -2.1355   2.6402  -3.0972 C.3            1 <1>                0.0000
     11 C11         -1.9577   4.1332  -2.8137 C.3            1 <1>                0.0000
     12 C12         -3.2607   4.8496  -3.0582 C.ar           1 <1>                0.0000
     13 C13         -3.5479   5.3528  -4.3133 C.ar           1 <1>                0.0000
     14 C14         -4.7431   6.0100  -4.5377 C.ar           1 <1>                0.0000
     15 C15         -5.6515   6.1636  -3.5070 C.ar           1 <1>                0.0000
     16 C16         -5.3647   5.6597  -2.2521 C.ar           1 <1>                0.0000
     17 C17         -4.1713   4.9987  -2.0289 C.ar           1 <1>                0.0000
     18 P18          0.8169  -2.0817  -0.5901 P.3            1 <1>                0.0000
     19 O19         -0.6607  -2.5118  -0.4532 O.co2          1 <1>                0.0000
     20 O20          1.5737  -3.1090  -1.4613 O.co2          1 <1>                0.0000
     21 C21          1.5829  -2.0047   1.0623 C.3            1 <1>                0.0000
     22 C22          1.5812  -3.3996   1.6908 C.3            1 <1>                0.0000
     23 C23          2.6449  -4.2454   1.0393 C.2            1 <1>                0.0000
     24 O24          3.8133  -3.9010   1.0898 O.co2          1 <1>                0.0000
     25 O25          2.3369  -5.2740   0.4617 O.co2          1 <1>                0.0000
     26 C26          1.8638  -3.2860   3.1667 C.ar           1 <1>                0.0000
     27 C27          3.0475  -2.7198   3.6023 C.ar           1 <1>                0.0000
     28 C28          3.3066  -2.6156   4.9559 C.ar           1 <1>                0.0000
     29 C29          2.3820  -3.0772   5.8743 C.ar           1 <1>                0.0000
     30 C30          1.1983  -3.6424   5.4388 C.ar           1 <1>                0.0000
     31 C31          0.1907  -4.1459   6.4399 C.3            1 <1>                0.0000
     32 N32         -0.7396  -3.0628   6.7855 N.4            1 <1>                0.0000
     33 H33         -1.4142  -3.4000   7.4558 H              1 <1>                0.0000
     34 H34         -0.2250  -2.2922   7.1848 H              1 <1>                0.0000
     35 H35         -1.2184  -2.7524   5.9534 H              1 <1>                0.0000
     36 C36          0.9372  -3.7427   4.0849 C.ar           1 <1>                0.0000
     37 H37          4.1998  -0.4201  -2.3600 H              1 <1>                0.0000
     38 H38          3.2835  -1.8366  -1.7925 H              1 <1>                0.0000
     39 H39          2.7404  -0.9444  -3.2337 H              1 <1>                0.0000
     40 H40          2.7328   0.0376  -0.3472 H              1 <1>                0.0000
     41 H41          1.9602   1.5187  -2.9012 H              1 <1>                0.0000
     42 H42          1.8406   2.1467  -1.2400 H              1 <1>                0.0000
     43 H43          3.4375   1.8203  -1.9552 H              1 <1>                0.0000
     44 H44          0.2738   0.2606  -0.8240 H              1 <1>                0.0000
     45 H45          0.9614  -0.9941  -3.4247 H              1 <1>                0.0000
     46 H46         -0.5107   2.0521  -1.8108 H              1 <1>                0.0000
     47 H47         -0.0454   2.3189  -3.5081 H              1 <1>                0.0000
     48 H48         -2.4375   2.5009  -4.1352 H              1 <1>                0.0000
     49 H49         -2.9028   2.2341  -2.4380 H              1 <1>                0.0000
     50 H50         -1.6557   4.2724  -1.7756 H              1 <1>                0.0000
     51 H51         -1.1905   4.5393  -3.4729 H              1 <1>                0.0000
     52 H52         -2.8383   5.2327  -5.1186 H              1 <1>                0.0000
     53 H53         -4.9672   6.4037  -5.5181 H              1 <1>                0.0000
     54 H54         -6.5850   6.6777  -3.6821 H              1 <1>                0.0000
     55 H55         -6.0742   5.7801  -1.4468 H              1 <1>                0.0000
     56 H56         -3.9472   4.6050  -1.0485 H              1 <1>                0.0000
     57 H57          2.6091  -1.6487   0.9708 H              1 <1>                0.0000
     58 H58          1.0161  -1.3208   1.6941 H              1 <1>                0.0000
     59 H59          0.6063  -3.8639   1.5422 H              1 <1>                0.0000
     60 H60          3.7697  -2.3592   2.8848 H              1 <1>                0.0000
     61 H61          4.2316  -2.1739   5.2962 H              1 <1>                0.0000
     62 H62          2.5848  -2.9964   6.9320 H              1 <1>                0.0000
     63 H63         -0.3652  -4.9785   6.0086 H              1 <1>                0.0000
     64 H64          0.7079  -4.4813   7.3388 H              1 <1>                0.0000
     65 H65          0.0122  -4.1844   3.7446 H              1 <1>                0.0000
@<TRIPOS>BOND
    1    1    2 1     
    2    1   37 1     
    3    1   38 1     
    4    1   39 1     
    5    2    3 1     
    6    2    4 1     
    7    2   40 1     
    8    3   41 1     
    9    3   42 1     
   10    3   43 1     
   11    4    5 1     
   12    4   18 1     
   13    4   44 1     
   14    5    6 1     
   15    5   45 1     
   16    6    7 2     
   17    6    8 2     
   18    6    9 1     
   19    9   10 1     
   20    9   46 1     
   21    9   47 1     
   22   10   11 1     
   23   10   48 1     
   24   10   49 1     
   25   11   12 1     
   26   11   50 1     
   27   11   51 1     
   28   12   17 ar    
   29   12   13 ar    
   30   13   14 ar    
   31   13   52 1     
   32   14   15 ar    
   33   14   53 1     
   34   15   16 ar    
   35   15   54 1     
   36   16   17 ar    
   37   16   55 1     
   38   17   56 1     
   39   18   19 ar    
   40   18   20 ar    
   41   18   21 1     
   42   21   22 1     
   43   21   57 1     
   44   21   58 1     
   45   22   23 1     
   46   22   26 1     
   47   22   59 1     
   48   23   24 ar    
   49   23   25 ar    
   50   26   36 ar    
   51   26   27 ar    
   52   27   28 ar    
   53   27   60 1     
   54   28   29 ar    
   55   28   61 1     
   56   29   30 ar    
   57   29   62 1     
   58   30   31 1     
   59   30   36 ar    
   60   31   32 1     
   61   31   63 1     
   62   31   64 1     
   63   32   33 1     
   64   32   34 1     
   65   32   35 1     
   66   36   65 1     
@<TRIPOS>SUBSTRUCTURE
      1 ****           1
@<TRIPOS>SET
DONOR_HYDROGENS      STATIC     ATOMS    <user>   **** ""
4 45 33 34 35
ATOM$RED        STATIC     ATOMS    COLORGROUP SYSTEM
4 45 33 34 35
