#       Name:                52Z
#       Creating user name   gbret
#       Creation time:       Fri Sep  9 00:53:34 2016


#       File generated by GOLD software.
#

@<TRIPOS>MOLECULE
52Z
    85    88     1
SMALL
NO_CHARGES


@<TRIPOS>ATOM
      1 C1          -2.6027   6.2045  -5.0198 C.3            1 <1>                0.0000
      2 O2          -2.4070   4.7937  -5.1358 O.3            1 <1>                0.0000
      3 C3          -1.7157   4.1826  -4.1380 C.ar           1 <1>                0.0000
      4 C4          -1.2407   4.9246  -3.0664 C.ar           1 <1>                0.0000
      5 C5          -0.5387   4.3010  -2.0531 C.ar           1 <1>                0.0000
      6 C6          -0.3090   2.9386  -2.1066 C.ar           1 <1>                0.0000
      7 C7           0.4575   2.2609  -1.0001 C.3            1 <1>                0.0000
      8 C8          -0.5165   1.7958   0.0843 C.3            1 <1>                0.0000
      9 N9          -1.4004   0.7638  -0.4632 N.am           1 <1>                0.0000
     10 C10         -0.8804  -0.3817  -0.9468 C.2            1 <1>                0.0000
     11 O11          0.3217  -0.5584  -0.9287 O.2            1 <1>                0.0000
     12 O12         -1.6927  -1.3301  -1.4500 O.3            1 <1>                0.0000
     13 C13         -1.0634  -2.5380  -1.9532 C.3            1 <1>                0.0000
     14 C14         -1.0024  -3.6006  -0.8426 C.3            1 <1>                0.0000
     15 C15         -0.4689  -4.9278  -1.3756 C.3            1 <1>                0.0000
     16 O16         -1.1917  -5.3555  -2.5436 O.3            1 <1>                0.0000
     17 C17         -1.1345  -4.3909  -3.5676 C.3            1 <1>                0.0000
     18 O18         -1.6774  -4.6728  -4.8400 O.3            1 <1>                0.0000
     19 C19         -2.0770  -3.4241  -5.4482 C.3            1 <1>                0.0000
     20 C20         -1.8780  -2.3078  -4.3862 C.3            1 <1>                0.0000
     21 O21         -2.9552  -1.3694  -4.4191 O.3            1 <1>                0.0000
     22 C22         -1.8973  -3.1272  -3.0829 C.3            1 <1>                0.0000
     23 C23          0.2703   1.2203   1.2636 C.3            1 <1>                0.0000
     24 O24          1.1325   2.2269   1.7977 O.3            1 <1>                0.0000
     25 C25         -0.7036   0.7552   2.3480 C.3            1 <1>                0.0000
     26 N26          0.0497   0.2041   3.4772 N.pl3          1 <1>                0.0000
     27 C27          0.5498   1.0938   4.5282 C.3            1 <1>                0.0000
     28 C28         -0.5389   1.2990   5.5834 C.3            1 <1>                0.0000
     29 C29          0.0287   2.1088   6.7509 C.3            1 <1>                0.0000
     30 C30         -1.7151   2.0551   4.9624 C.3            1 <1>                0.0000
     31 S31          0.3359  -1.4246   3.5656 S.o2           1 <1>                0.0000
     32 O32          0.5587  -1.7190   4.9378 O.2            1 <1>                0.0000
     33 O33         -0.6760  -2.0525   2.7903 O.2            1 <1>                0.0000
     34 C34          1.8602  -1.7320   2.7370 C.ar           1 <1>                0.0000
     35 C35          1.8660  -2.0067   1.3819 C.ar           1 <1>                0.0000
     36 C36          3.0597  -2.2480   0.7299 C.ar           1 <1>                0.0000
     37 C37          4.2535  -2.2142   1.4359 C.ar           1 <1>                0.0000
     38 O38          5.4292  -2.4509   0.7967 O.3            1 <1>                0.0000
     39 C39          6.6189  -2.3997   1.5866 C.3            1 <1>                0.0000
     40 C40          4.2451  -1.9380   2.7954 C.ar           1 <1>                0.0000
     41 C41          3.0491  -1.6926   3.4418 C.ar           1 <1>                0.0000
     42 C42         -0.7818   2.1968  -3.1733 C.ar           1 <1>                0.0000
     43 C43         -1.4889   2.8148  -4.1865 C.ar           1 <1>                0.0000
     44 H44         -1.6345   6.7040  -4.9857 H              1 <1>                0.0000
     45 H45         -3.1674   6.5649  -5.8797 H              1 <1>                0.0000
     46 H46         -3.1555   6.4206  -4.1056 H              1 <1>                0.0000
     47 H47         -1.4192   5.9889  -3.0245 H              1 <1>                0.0000
     48 H48         -0.1686   4.8782  -1.2186 H              1 <1>                0.0000
     49 H49          0.9914   1.4000  -1.4024 H              1 <1>                0.0000
     50 H50          1.1718   2.9630  -0.5701 H              1 <1>                0.0000
     51 H51         -1.1131   2.6424   0.4242 H              1 <1>                0.0000
     52 H52         -2.3600   0.9049  -0.4777 H              1 <1>                0.0000
     53 H53         -0.0585  -2.3128  -2.3106 H              1 <1>                0.0000
     54 H54         -0.3483  -3.2471  -0.0456 H              1 <1>                0.0000
     55 H55         -2.0036  -3.7541  -0.4399 H              1 <1>                0.0000
     56 H56          0.5843  -4.8114  -1.6313 H              1 <1>                0.0000
     57 H57         -0.5641  -5.6874  -0.5998 H              1 <1>                0.0000
     58 H58         -0.0907  -4.1130  -3.7136 H              1 <1>                0.0000
     59 H59         -1.4554  -3.2210  -6.3202 H              1 <1>                0.0000
     60 H60         -3.1256  -3.4737  -5.7416 H              1 <1>                0.0000
     61 H61         -0.9198  -1.8058  -4.5201 H              1 <1>                0.0000
     62 H62         -3.0452  -0.9033  -5.2616 H              1 <1>                0.0000
     63 H63         -2.9141  -3.3501  -2.7592 H              1 <1>                0.0000
     64 H64          0.8669   0.3737   0.9238 H              1 <1>                0.0000
     65 H65          0.6685   3.0117   2.1201 H              1 <1>                0.0000
     66 H66         -1.3003   1.6017   2.6879 H              1 <1>                0.0000
     67 H67         -1.3613  -0.0127   1.9407 H              1 <1>                0.0000
     68 H68          1.4282   0.6476   4.9944 H              1 <1>                0.0000
     69 H69          0.8190   2.0558   4.0921 H              1 <1>                0.0000
     70 H70         -0.8809   0.3296   5.9459 H              1 <1>                0.0000
     71 H71          0.3706   3.0782   6.3884 H              1 <1>                0.0000
     72 H72         -0.7469   2.2549   7.5027 H              1 <1>                0.0000
     73 H73          0.8666   1.5701   7.1934 H              1 <1>                0.0000
     74 H74         -2.2024   1.4228   4.2202 H              1 <1>                0.0000
     75 H75         -2.4304   2.3178   5.7418 H              1 <1>                0.0000
     76 H76         -1.3505   2.9635   4.4827 H              1 <1>                0.0000
     77 H77          0.9364  -2.0329   0.8327 H              1 <1>                0.0000
     78 H78          3.0636  -2.4632  -0.3284 H              1 <1>                0.0000
     79 H79          7.4833  -2.6063   0.9555 H              1 <1>                0.0000
     80 H80          6.7198  -1.4080   2.0277 H              1 <1>                0.0000
     81 H81          6.5611  -3.1457   2.3792 H              1 <1>                0.0000
     82 H82          5.1731  -1.9114   3.3472 H              1 <1>                0.0000
     83 H83          3.0420  -1.4771   4.5000 H              1 <1>                0.0000
     84 H84         -0.6015   1.1327  -3.2127 H              1 <1>                0.0000
     85 H85         -1.8580   2.2350  -5.0195 H              1 <1>                0.0000
@<TRIPOS>BOND
    1    1    2 1     
    2    1   44 1     
    3    1   45 1     
    4    1   46 1     
    5    2    3 1     
    6    3   43 ar    
    7    3    4 ar    
    8    4    5 ar    
    9    4   47 1     
   10    5    6 ar    
   11    5   48 1     
   12    6    7 1     
   13    6   42 ar    
   14    7    8 1     
   15    7   49 1     
   16    7   50 1     
   17    8    9 1     
   18    8   23 1     
   19    8   51 1     
   20    9   10 am    
   21    9   52 1     
   22   10   11 2     
   23   10   12 1     
   24   12   13 1     
   25   13   22 1     
   26   13   14 1     
   27   13   53 1     
   28   14   15 1     
   29   14   54 1     
   30   14   55 1     
   31   15   16 1     
   32   15   56 1     
   33   15   57 1     
   34   16   17 1     
   35   17   22 1     
   36   17   18 1     
   37   17   58 1     
   38   18   19 1     
   39   19   20 1     
   40   19   59 1     
   41   19   60 1     
   42   20   21 1     
   43   20   22 1     
   44   20   61 1     
   45   21   62 1     
   46   22   63 1     
   47   23   24 1     
   48   23   25 1     
   49   23   64 1     
   50   24   65 1     
   51   25   26 1     
   52   25   66 1     
   53   25   67 1     
   54   26   27 1     
   55   26   31 1     
   56   27   28 1     
   57   27   68 1     
   58   27   69 1     
   59   28   29 1     
   60   28   30 1     
   61   28   70 1     
   62   29   71 1     
   63   29   72 1     
   64   29   73 1     
   65   30   74 1     
   66   30   75 1     
   67   30   76 1     
   68   31   32 2     
   69   31   33 2     
   70   31   34 1     
   71   34   41 ar    
   72   34   35 ar    
   73   35   36 ar    
   74   35   77 1     
   75   36   37 ar    
   76   36   78 1     
   77   37   38 1     
   78   37   40 ar    
   79   38   39 1     
   80   39   79 1     
   81   39   80 1     
   82   39   81 1     
   83   40   41 ar    
   84   40   82 1     
   85   41   83 1     
   86   42   43 ar    
   87   42   84 1     
   88   43   85 1     
@<TRIPOS>SUBSTRUCTURE
      1 ****           1
@<TRIPOS>SET
DONOR_HYDROGENS      STATIC     ATOMS    <user>   **** ""
3 52 62 65
ATOM$RED        STATIC     ATOMS    COLORGROUP SYSTEM
3 52 62 65
