#       Name:                54S
#       Creating user name   gbret
#       Creation time:       Fri Sep  9 00:57:20 2016


#       File generated by GOLD software.
#

@<TRIPOS>MOLECULE
54S
    60    62     1
SMALL
NO_CHARGES


@<TRIPOS>ATOM
      1 O1           9.0910   4.0761   1.3898 O.co2          1 <1>                0.0000
      2 C2          10.0304   3.6691   0.7210 C.2            1 <1>                0.0000
      3 O3          11.0882   4.2826   0.7153 O.co2          1 <1>                0.0000
      4 C4           9.8894   2.4343  -0.0744 C.ar           1 <1>                0.0000
      5 C5          10.9631   1.9636  -0.8352 C.ar           1 <1>                0.0000
      6 C6          10.8283   0.8086  -1.5773 C.ar           1 <1>                0.0000
      7 C7           9.6332   0.1131  -1.5719 C.ar           1 <1>                0.0000
      8 C8           8.5592   0.5722  -0.8190 C.ar           1 <1>                0.0000
      9 N9           7.3521  -0.1361  -0.8175 N.am           1 <1>                0.0000
     10 C10          6.1829   0.5252  -0.7071 C.2            1 <1>                0.0000
     11 O11          6.1699   1.7380  -0.7054 O.2            1 <1>                0.0000
     12 C12          4.8917  -0.2424  -0.5859 C.3            1 <1>                0.0000
     13 C13          3.7233   0.7393  -0.4755 C.3            1 <1>                0.0000
     14 N14          2.4680  -0.0069  -0.3576 N.am           1 <1>                0.0000
     15 C15          1.2988   0.6544  -0.2472 C.2            1 <1>                0.0000
     16 O16          1.2859   1.8671  -0.2455 O.2            1 <1>                0.0000
     17 C17          0.0076  -0.1131  -0.1260 C.3            1 <1>                0.0000
     18 C18         -1.1607   0.8685  -0.0155 C.3            1 <1>                0.0000
     19 N19         -2.4194   0.1203   0.1027 N.4            1 <1>                0.0000
     20 H20         -2.5436  -0.4600  -0.7134 H              1 <1>                0.0000
     21 H21         -2.3892  -0.4607   0.9271 H              1 <1>                0.0000
     22 C22         -3.5412   1.0628   0.2087 C.3            1 <1>                0.0000
     23 C23         -4.8324   0.2953   0.3299 C.ar           1 <1>                0.0000
     24 C24         -5.5324  -0.0601  -0.8093 C.ar           1 <1>                0.0000
     25 C25         -6.7153  -0.7629  -0.7050 C.ar           1 <1>                0.0000
     26 C26         -7.2053  -1.1152   0.5511 C.ar           1 <1>                0.0000
     27 C27         -6.4962  -0.7548   1.6962 C.ar           1 <1>                0.0000
     28 Cl28        -7.0988  -1.1891   3.2653 Cl             1 <1>                0.0000
     29 C29         -5.3101  -0.0560   1.5791 C.ar           1 <1>                0.0000
     30 C30         -8.4770  -1.8705   0.6694 C.ar           1 <1>                0.0000
     31 C31         -9.6134  -1.4373  -0.0107 C.ar           1 <1>                0.0000
     32 C32        -10.7937  -2.1437   0.1030 C.ar           1 <1>                0.0000
     33 C33        -10.8498  -3.2794   0.8906 C.ar           1 <1>                0.0000
     34 C34         -9.7249  -3.7136   1.5683 C.ar           1 <1>                0.0000
     35 C35         -8.5376  -3.0187   1.4565 C.ar           1 <1>                0.0000
     36 C36          8.6849   1.7286  -0.0653 C.ar           1 <1>                0.0000
     37 H37         11.8981   2.5041  -0.8423 H              1 <1>                0.0000
     38 H38         11.6590   0.4466  -2.1649 H              1 <1>                0.0000
     39 H39          9.5339  -0.7903  -2.1554 H              1 <1>                0.0000
     40 H40          7.3569  -1.1029  -0.8959 H              1 <1>                0.0000
     41 H41          4.7574  -0.8692  -1.4674 H              1 <1>                0.0000
     42 H42          4.9243  -0.8700   0.3047 H              1 <1>                0.0000
     43 H43          3.8575   1.3661   0.4061 H              1 <1>                0.0000
     44 H44          3.6906   1.3669  -1.3660 H              1 <1>                0.0000
     45 H45          2.4784  -0.9768  -0.3590 H              1 <1>                0.0000
     46 H46         -0.1266  -0.7400  -1.0075 H              1 <1>                0.0000
     47 H47          0.0403  -0.7408   0.7646 H              1 <1>                0.0000
     48 H48         -1.0265   1.4954   0.8660 H              1 <1>                0.0000
     49 H49         -1.1934   1.4961  -0.9061 H              1 <1>                0.0000
     50 H50         -3.4070   1.6897   1.0902 H              1 <1>                0.0000
     51 H51         -3.5738   1.6904  -0.6819 H              1 <1>                0.0000
     52 H52         -5.1523   0.2135  -1.7825 H              1 <1>                0.0000
     53 H53         -7.2607  -1.0392  -1.5953 H              1 <1>                0.0000
     54 H54         -4.7595   0.2240   2.4651 H              1 <1>                0.0000
     55 H55         -9.5708  -0.5503  -0.6254 H              1 <1>                0.0000
     56 H56        -11.6751  -1.8089  -0.4237 H              1 <1>                0.0000
     57 H57        -11.7755  -3.8289   0.9771 H              1 <1>                0.0000
     58 H58         -9.7745  -4.6006   2.1825 H              1 <1>                0.0000
     59 H59         -7.6598  -3.3588   1.9858 H              1 <1>                0.0000
     60 H60          7.8513   2.0870   0.5205 H              1 <1>                0.0000
@<TRIPOS>BOND
    1    1    2 ar    
    2    2    3 ar    
    3    2    4 1     
    4    4   36 ar    
    5    4    5 ar    
    6    5    6 ar    
    7    5   37 1     
    8    6    7 ar    
    9    6   38 1     
   10    7    8 ar    
   11    7   39 1     
   12    8    9 1     
   13    8   36 ar    
   14    9   10 am    
   15    9   40 1     
   16   10   11 2     
   17   10   12 1     
   18   12   13 1     
   19   12   41 1     
   20   12   42 1     
   21   13   14 1     
   22   13   43 1     
   23   13   44 1     
   24   14   15 am    
   25   14   45 1     
   26   15   16 2     
   27   15   17 1     
   28   17   18 1     
   29   17   46 1     
   30   17   47 1     
   31   18   19 1     
   32   18   48 1     
   33   18   49 1     
   34   19   20 1     
   35   19   21 1     
   36   19   22 1     
   37   22   23 1     
   38   22   50 1     
   39   22   51 1     
   40   23   29 ar    
   41   23   24 ar    
   42   24   25 ar    
   43   24   52 1     
   44   25   26 ar    
   45   25   53 1     
   46   26   27 ar    
   47   26   30 1     
   48   27   28 1     
   49   27   29 ar    
   50   29   54 1     
   51   30   35 ar    
   52   30   31 ar    
   53   31   32 ar    
   54   31   55 1     
   55   32   33 ar    
   56   32   56 1     
   57   33   34 ar    
   58   33   57 1     
   59   34   35 ar    
   60   34   58 1     
   61   35   59 1     
   62   36   60 1     
@<TRIPOS>SUBSTRUCTURE
      1 ****           1
@<TRIPOS>SET
DONOR_HYDROGENS      STATIC     ATOMS    <user>   **** ""
4 40 45 20 21
ATOM$RED        STATIC     ATOMS    COLORGROUP SYSTEM
4 40 45 20 21
