#       Name:                55F
#       Creating user name   gbret
#       Creation time:       Fri Sep  9 00:58:43 2016


#       File generated by GOLD software.
#

@<TRIPOS>MOLECULE
55F
    42    45     1
SMALL
NO_CHARGES


@<TRIPOS>ATOM
      1 C1          -0.2789   6.5989   0.5868 C.3            1 <1>                0.0000
      2 C2          -0.2584   5.0920   0.5785 C.2            1 <1>                0.0000
      3 O3          -0.2402   4.4801   1.6254 O.2            1 <1>                0.0000
      4 N4          -0.2604   4.4245  -0.5923 N.am           1 <1>                0.0000
      5 C5          -0.2416   3.0380  -0.5999 C.2            1 <1>                0.0000
      6 N6          -0.2359   2.2855  -1.6728 N.2            1 <1>                0.0000
      7 C7          -0.2168   0.9875  -1.3137 C.2            1 <1>                0.0000
      8 C8          -0.2103   0.9357   0.0687 C.2            1 <1>                0.0000
      9 N9          -0.2204   2.2446   0.5055 N.pl3          1 <1>                0.0000
     10 H10         -0.2188   2.5434   1.4283 H              1 <1>                0.0000
     11 C11         -0.1911  -0.2766   0.9080 C.ar           1 <1>                0.0000
     12 C12         -1.0387  -1.3568   0.5956 C.ar           1 <1>                0.0000
     13 C13         -1.0383  -2.4819   1.3532 C.ar           1 <1>                0.0000
     14 C14         -0.1844  -2.5818   2.4683 C.ar           1 <1>                0.0000
     15 N15         -0.1714  -3.6835   3.2253 N.ar           1 <1>                0.0000
     16 C16          0.6341  -3.7545   4.2610 C.ar           1 <1>                0.0000
     17 C17          1.4790  -2.6906   4.5822 C.ar           1 <1>                0.0000
     18 N18          1.4855  -1.5967   3.8548 N.ar           1 <1>                0.0000
     19 C19          0.6745  -1.5004   2.7939 C.ar           1 <1>                0.0000
     20 C20          0.6653  -0.3471   1.9959 C.ar           1 <1>                0.0000
     21 C21         -0.2052  -0.1733  -2.2318 C.ar           1 <1>                0.0000
     22 C22         -0.7193  -0.0397  -3.5220 C.ar           1 <1>                0.0000
     23 C23         -0.7021  -1.1326  -4.3690 C.ar           1 <1>                0.0000
     24 C24         -0.1701  -2.3283  -3.8989 C.ar           1 <1>                0.0000
     25 F25         -0.1345  -3.4189  -4.6954 F              1 <1>                0.0000
     26 C26          0.3232  -2.3900  -2.6066 C.ar           1 <1>                0.0000
     27 C27          0.9008  -3.6833  -2.0922 C.3            1 <1>                0.0000
     28 N28          0.2991  -1.3313  -1.8225 N.ar           1 <1>                0.0000
     29 H29          0.7437   6.9762   0.5791 H              1 <1>                0.0000
     30 H30         -0.8060   6.9600  -0.2963 H              1 <1>                0.0000
     31 H31         -0.7891   6.9504   1.4836 H              1 <1>                0.0000
     32 H32         -0.2750   4.9139  -1.4296 H              1 <1>                0.0000
     33 H33         -1.6974  -1.2885  -0.2575 H              1 <1>                0.0000
     34 H34         -1.6941  -3.3021   1.1010 H              1 <1>                0.0000
     35 H35          0.6425  -4.6458   4.8708 H              1 <1>                0.0000
     36 H36          2.1338  -2.7676   5.4376 H              1 <1>                0.0000
     37 H37          1.3169   0.4818   2.2300 H              1 <1>                0.0000
     38 H38         -1.1255   0.9041  -3.8545 H              1 <1>                0.0000
     39 H39         -1.0933  -1.0593  -5.3730 H              1 <1>                0.0000
     40 H40          1.9685  -3.7162  -2.3092 H              1 <1>                0.0000
     41 H41          0.7469  -3.7470  -1.0150 H              1 <1>                0.0000
     42 H42          0.4048  -4.5223  -2.5803 H              1 <1>                0.0000
@<TRIPOS>BOND
    1    1    2 1     
    2    1   29 1     
    3    1   30 1     
    4    1   31 1     
    5    2    3 2     
    6    2    4 am    
    7    4    5 1     
    8    4   32 1     
    9    5    9 1     
   10    5    6 2     
   11    6    7 1     
   12    7    8 2     
   13    7   21 1     
   14    8    9 1     
   15    8   11 1     
   16    9   10 1     
   17   11   20 ar    
   18   11   12 ar    
   19   12   13 ar    
   20   12   33 1     
   21   13   14 ar    
   22   13   34 1     
   23   14   19 ar    
   24   14   15 ar    
   25   15   16 ar    
   26   16   17 ar    
   27   16   35 1     
   28   17   18 ar    
   29   17   36 1     
   30   18   19 ar    
   31   19   20 ar    
   32   20   37 1     
   33   21   28 ar    
   34   21   22 ar    
   35   22   23 ar    
   36   22   38 1     
   37   23   24 ar    
   38   23   39 1     
   39   24   25 1     
   40   24   26 ar    
   41   26   27 1     
   42   26   28 ar    
   43   27   40 1     
   44   27   41 1     
   45   27   42 1     
@<TRIPOS>SUBSTRUCTURE
      1 ****           1
@<TRIPOS>SET
DONOR_HYDROGENS      STATIC     ATOMS    <user>   **** ""
2 32 10
ATOM$RED        STATIC     ATOMS    COLORGROUP SYSTEM
2 32 10
