#       Name:                570
#       Creating user name   gbret
#       Creation time:       Fri Sep  9 01:01:52 2016


#       File generated by GOLD software.
#

@<TRIPOS>MOLECULE
570
    70    74     1
SMALL
NO_CHARGES


@<TRIPOS>ATOM
      1 C1          -3.3631  -0.3159  -4.6600 C.3            1 <1>                0.0000
      2 C2          -3.2788  -1.8191  -4.5953 C.2            1 <1>                0.0000
      3 O3          -3.2207  -2.6621  -5.6453 O.3            1 <1>                0.0000
      4 C4          -3.1540  -3.9142  -5.1607 C.2            1 <1>                0.0000
      5 N5          -3.1699  -3.8559  -3.8499 N.2            1 <1>                0.0000
      6 C6          -3.2418  -2.5688  -3.4786 C.2            1 <1>                0.0000
      7 C7          -3.2825  -2.0544  -2.0627 C.3            1 <1>                0.0000
      8 C8          -1.8558  -1.8045  -1.5696 C.3            1 <1>                0.0000
      9 O9          -1.8945  -1.3168  -0.2270 O.3            1 <1>                0.0000
     10 C10         -0.7020  -1.0425   0.3643 C.ar           1 <1>                0.0000
     11 C11          0.4807  -1.2333  -0.3353 C.ar           1 <1>                0.0000
     12 C12          1.6916  -0.9533   0.2678 C.ar           1 <1>                0.0000
     13 C13          1.7255  -0.4837   1.5679 C.ar           1 <1>                0.0000
     14 C14          3.0478  -0.1796   2.2236 C.3            1 <1>                0.0000
     15 C15          3.4254   1.2790   1.9576 C.3            1 <1>                0.0000
     16 N16          2.4563   2.1615   2.6120 N.pl3          1 <1>                0.0000
     17 C17          2.2513   3.4466   2.1291 C.ar           1 <1>                0.0000
     18 C18          3.0398   3.9389   1.0963 C.ar           1 <1>                0.0000
     19 C19          2.8338   5.2163   0.6179 C.ar           1 <1>                0.0000
     20 C20          1.8418   6.0187   1.1611 C.ar           1 <1>                0.0000
     21 C21          1.0498   5.5494   2.1850 C.ar           1 <1>                0.0000
     22 C22          1.2415   4.2547   2.6779 C.ar           1 <1>                0.0000
     23 C23          0.3977   3.7456   3.7728 C.2            1 <1>                0.0000
     24 O24         -0.7474   3.4029   3.5490 O.2            1 <1>                0.0000
     25 C25          0.9429   3.6515   5.1435 C.ar           1 <1>                0.0000
     26 C26          2.2130   4.1566   5.4294 C.ar           1 <1>                0.0000
     27 C27          2.7156   4.0653   6.7106 C.ar           1 <1>                0.0000
     28 C28          1.9645   3.4745   7.7115 C.ar           1 <1>                0.0000
     29 C29          0.7052   2.9720   7.4351 C.ar           1 <1>                0.0000
     30 C30          0.1878   3.0621   6.1597 C.ar           1 <1>                0.0000
     31 C31          4.8023   1.5497   2.5071 C.2            1 <1>                0.0000
     32 O32          5.7836   1.3805   1.8036 O.co2          1 <1>                0.0000
     33 O33          4.9349   1.9379   3.6553 O.co2          1 <1>                0.0000
     34 C34          0.5481  -0.2923   2.2671 C.ar           1 <1>                0.0000
     35 C35         -0.6656  -0.5658   1.6667 C.ar           1 <1>                0.0000
     36 C36         -3.0763  -5.1496  -5.9689 C.ar           1 <1>                0.0000
     37 C37         -3.0176  -6.3950  -5.3416 C.ar           1 <1>                0.0000
     38 C38         -2.9457  -7.5441  -6.1017 C.ar           1 <1>                0.0000
     39 C39         -2.9316  -7.4638  -7.4828 C.ar           1 <1>                0.0000
     40 C40         -2.9890  -6.2323  -8.1109 C.ar           1 <1>                0.0000
     41 C41         -3.0670  -5.0759  -7.3626 C.ar           1 <1>                0.0000
     42 H42         -2.3574   0.1043  -4.6709 H              1 <1>                0.0000
     43 H43         -3.8902  -0.0202  -5.5671 H              1 <1>                0.0000
     44 H44         -3.9026   0.0556  -3.7888 H              1 <1>                0.0000
     45 H45         -3.8465  -1.1222  -2.0308 H              1 <1>                0.0000
     46 H46         -3.7644  -2.7927  -1.4217 H              1 <1>                0.0000
     47 H47         -1.2919  -2.7367  -1.6015 H              1 <1>                0.0000
     48 H48         -1.3740  -1.0662  -2.2107 H              1 <1>                0.0000
     49 H49          0.4548  -1.6008  -1.3506 H              1 <1>                0.0000
     50 H50          2.6125  -1.1017  -0.2764 H              1 <1>                0.0000
     51 H51          2.9668  -0.3438   3.2981 H              1 <1>                0.0000
     52 H52          3.8162  -0.8345   1.8128 H              1 <1>                0.0000
     53 H53          3.4196   1.4658   0.8837 H              1 <1>                0.0000
     54 H54          1.9578   1.8477   3.3827 H              1 <1>                0.0000
     55 H55          3.8151   3.3210   0.6680 H              1 <1>                0.0000
     56 H56          3.4494   5.5942  -0.1850 H              1 <1>                0.0000
     57 H57          1.6898   7.0174   0.7792 H              1 <1>                0.0000
     58 H58          0.2787   6.1788   2.6041 H              1 <1>                0.0000
     59 H59          2.8005   4.6172   4.6490 H              1 <1>                0.0000
     60 H60          3.6978   4.4556   6.9331 H              1 <1>                0.0000
     61 H61          2.3632   3.4051   8.7128 H              1 <1>                0.0000
     62 H62          0.1244   2.5118   8.2208 H              1 <1>                0.0000
     63 H63         -0.7952   2.6694   5.9453 H              1 <1>                0.0000
     64 H64          0.5772   0.0750   3.2824 H              1 <1>                0.0000
     65 H65         -1.5849  -0.4161   2.2133 H              1 <1>                0.0000
     66 H66         -3.0282  -6.4590  -4.2635 H              1 <1>                0.0000
     67 H67         -2.8999  -8.5084  -5.6175 H              1 <1>                0.0000
     68 H68         -2.8751  -8.3663  -8.0733 H              1 <1>                0.0000
     69 H69         -2.9769  -6.1764  -9.1894 H              1 <1>                0.0000
     70 H70         -3.1120  -4.1153  -7.8540 H              1 <1>                0.0000
@<TRIPOS>BOND
    1    1    2 1     
    2    1   42 1     
    3    1   43 1     
    4    1   44 1     
    5    2    6 2     
    6    2    3 1     
    7    3    4 1     
    8    4    5 2     
    9    4   36 1     
   10    5    6 1     
   11    6    7 1     
   12    7    8 1     
   13    7   45 1     
   14    7   46 1     
   15    8    9 1     
   16    8   47 1     
   17    8   48 1     
   18    9   10 1     
   19   10   35 ar    
   20   10   11 ar    
   21   11   12 ar    
   22   11   49 1     
   23   12   13 ar    
   24   12   50 1     
   25   13   14 1     
   26   13   34 ar    
   27   14   15 1     
   28   14   51 1     
   29   14   52 1     
   30   15   16 1     
   31   15   31 1     
   32   15   53 1     
   33   16   17 1     
   34   16   54 1     
   35   17   22 ar    
   36   17   18 ar    
   37   18   19 ar    
   38   18   55 1     
   39   19   20 ar    
   40   19   56 1     
   41   20   21 ar    
   42   20   57 1     
   43   21   22 ar    
   44   21   58 1     
   45   22   23 1     
   46   23   24 2     
   47   23   25 1     
   48   25   30 ar    
   49   25   26 ar    
   50   26   27 ar    
   51   26   59 1     
   52   27   28 ar    
   53   27   60 1     
   54   28   29 ar    
   55   28   61 1     
   56   29   30 ar    
   57   29   62 1     
   58   30   63 1     
   59   31   32 ar    
   60   31   33 ar    
   61   34   35 ar    
   62   34   64 1     
   63   35   65 1     
   64   36   41 ar    
   65   36   37 ar    
   66   37   38 ar    
   67   37   66 1     
   68   38   39 ar    
   69   38   67 1     
   70   39   40 ar    
   71   39   68 1     
   72   40   41 ar    
   73   40   69 1     
   74   41   70 1     
@<TRIPOS>SUBSTRUCTURE
      1 ****           1
@<TRIPOS>SET
DONOR_HYDROGENS      STATIC     ATOMS    <user>   **** ""
1 54
ATOM$RED        STATIC     ATOMS    COLORGROUP SYSTEM
1 54
