#       Name:                594
#       Creating user name   gbret
#       Creation time:       Fri Sep  9 01:06:16 2016


#       File generated by GOLD software.
#

@<TRIPOS>MOLECULE
594
    65    69     1
SMALL
NO_CHARGES


@<TRIPOS>ATOM
      1 N1          -5.8061   9.2071   1.4761 N.pl3          1 <1>                0.0000
      2 C2          -5.7873   7.8233   1.4685 C.ar           1 <1>                0.0000
      3 N3          -6.9199   7.1279   1.4701 N.ar           1 <1>                0.0000
      4 C4          -6.9117   5.8075   1.4629 C.ar           1 <1>                0.0000
      5 N5          -5.7966   5.1078   1.4543 N.ar           1 <1>                0.0000
      6 C6          -4.6152   5.7164   1.4521 C.ar           1 <1>                0.0000
      7 N7          -3.3091   5.2965   1.4445 N.pl3          1 <1>                0.0000
      8 C8          -2.5220   6.4094   1.4469 C.2            1 <1>                0.0000
      9 N9          -3.2638   7.4787   1.4554 N.2            1 <1>                0.0000
     10 C10         -4.5705   7.1209   1.4531 C.ar           1 <1>                0.0000
     11 C11         -2.8454   3.9068   1.4360 C.3            1 <1>                0.0000
     12 O12         -1.4844   3.8339   0.9583 O.3            1 <1>                0.0000
     13 C13         -0.9775   2.5720   1.4447 C.3            1 <1>                0.0000
     14 C14          0.5523   2.5840   1.4631 C.3            1 <1>                0.0000
     15 O15          1.0443   2.6528   0.1232 O.3            1 <1>                0.0000
     16 S16          2.5628   2.6704   0.0214 S.o2           1 <1>                0.0000
     17 O17          2.8706   2.9413  -1.3392 O.2            1 <1>                0.0000
     18 O18          3.0278   3.4728   1.0981 O.2            1 <1>                0.0000
     19 N19          3.0922   1.1306   0.3230 N.am           1 <1>                0.0000
     20 C20          2.7748   0.1310  -0.5234 C.2            1 <1>                0.0000
     21 O21          2.1014   0.3591  -1.5059 O.2            1 <1>                0.0000
     22 C22          3.2566  -1.2703  -0.2490 C.3            1 <1>                0.0000
     23 C23          2.7611  -2.2056  -1.3538 C.3            1 <1>                0.0000
     24 C24          3.2503  -3.6282  -1.0752 C.3            1 <1>                0.0000
     25 C25          2.7548  -4.5635  -2.1800 C.3            1 <1>                0.0000
     26 C26          3.2440  -5.9861  -1.9013 C.3            1 <1>                0.0000
     27 S27          2.3432  -6.7175  -0.4744 S.3            1 <1>                0.0000
     28 C28          2.5517  -8.4565  -1.0356 C.3            1 <1>                0.0000
     29 C29          2.4753  -8.3293  -2.5698 C.3            1 <1>                0.0000
     30 N30          1.0759  -8.4780  -2.9990 N.am           1 <1>                0.0000
     31 C31          0.6932  -7.3632  -3.6363 C.2            1 <1>                0.0000
     32 O32         -0.4212  -7.2129  -4.0987 O.2            1 <1>                0.0000
     33 N33          1.6503  -6.4288  -3.7172 N.am           1 <1>                0.0000
     34 C34          2.8675  -6.9302  -3.0601 C.3            1 <1>                0.0000
     35 C35         -1.5316   2.4516   2.8817 C.3            1 <1>                0.0000
     36 O36         -0.5763   2.9335   3.8288 O.3            1 <1>                0.0000
     37 C37         -2.7887   3.3499   2.8758 C.3            1 <1>                0.0000
     38 F38         -2.6510   4.3918   3.7993 F              1 <1>                0.0000
     39 H39         -4.9727   9.7035   1.4708 H              1 <1>                0.0000
     40 H40         -6.6526   9.6806   1.4828 H              1 <1>                0.0000
     41 H41         -7.8551   5.2818   1.4645 H              1 <1>                0.0000
     42 H42         -1.4420   6.4046   1.4429 H              1 <1>                0.0000
     43 H43         -3.4999   3.2930   0.8172 H              1 <1>                0.0000
     44 H44         -1.3424   1.7525   0.8256 H              1 <1>                0.0000
     45 H45          0.9022   3.4509   2.0235 H              1 <1>                0.0000
     46 H46          0.9171   1.6731   1.9378 H              1 <1>                0.0000
     47 H47          3.6308   0.9481   1.1088 H              1 <1>                0.0000
     48 H48          4.3463  -1.2816  -0.2249 H              1 <1>                0.0000
     49 H49          2.8685  -1.6062   0.7126 H              1 <1>                0.0000
     50 H50          1.6714  -2.1942  -1.3778 H              1 <1>                0.0000
     51 H51          3.1493  -1.8697  -2.3154 H              1 <1>                0.0000
     52 H52          4.3400  -3.6396  -1.0511 H              1 <1>                0.0000
     53 H53          2.8622  -3.9641  -0.1136 H              1 <1>                0.0000
     54 H54          1.6651  -4.5521  -2.2040 H              1 <1>                0.0000
     55 H55          3.1429  -4.2276  -3.1416 H              1 <1>                0.0000
     56 H56          4.3202  -5.9962  -1.7289 H              1 <1>                0.0000
     57 H57          3.5213  -8.8482  -0.7281 H              1 <1>                0.0000
     58 H58          1.7435  -9.0835  -0.6592 H              1 <1>                0.0000
     59 H59          3.1029  -9.0847  -3.0426 H              1 <1>                0.0000
     60 H60          0.5199  -9.2579  -2.8457 H              1 <1>                0.0000
     61 H61          1.5557  -5.5613  -4.1407 H              1 <1>                0.0000
     62 H62          3.6857  -6.9917  -3.7776 H              1 <1>                0.0000
     63 H63         -1.7991   1.4183   3.1025 H              1 <1>                0.0000
     64 H64         -0.8726   2.8812   4.7478 H              1 <1>                0.0000
     65 H65         -3.6799   2.7611   3.0929 H              1 <1>                0.0000
@<TRIPOS>BOND
    1    1    2 1     
    2    1   39 1     
    3    1   40 1     
    4    2   10 ar    
    5    2    3 ar    
    6    3    4 ar    
    7    4    5 ar    
    8    4   41 1     
    9    5    6 ar    
   10    6   10 ar    
   11    6    7 1     
   12    7    8 1     
   13    7   11 1     
   14    8    9 2     
   15    8   42 1     
   16    9   10 1     
   17   11   37 1     
   18   11   12 1     
   19   11   43 1     
   20   12   13 1     
   21   13   14 1     
   22   13   35 1     
   23   13   44 1     
   24   14   15 1     
   25   14   45 1     
   26   14   46 1     
   27   15   16 1     
   28   16   17 2     
   29   16   18 2     
   30   16   19 1     
   31   19   20 am    
   32   19   47 1     
   33   20   21 2     
   34   20   22 1     
   35   22   23 1     
   36   22   48 1     
   37   22   49 1     
   38   23   24 1     
   39   23   50 1     
   40   23   51 1     
   41   24   25 1     
   42   24   52 1     
   43   24   53 1     
   44   25   26 1     
   45   25   54 1     
   46   25   55 1     
   47   26   34 1     
   48   26   27 1     
   49   26   56 1     
   50   27   28 1     
   51   28   29 1     
   52   28   57 1     
   53   28   58 1     
   54   29   34 1     
   55   29   30 1     
   56   29   59 1     
   57   30   31 am    
   58   30   60 1     
   59   31   32 2     
   60   31   33 am    
   61   33   34 1     
   62   33   61 1     
   63   34   62 1     
   64   35   36 1     
   65   35   37 1     
   66   35   63 1     
   67   36   64 1     
   68   37   38 1     
   69   37   65 1     
@<TRIPOS>SUBSTRUCTURE
      1 ****           1
@<TRIPOS>SET
DONOR_HYDROGENS      STATIC     ATOMS    <user>   **** ""
6 39 40 47 60 61 64
ATOM$RED        STATIC     ATOMS    COLORGROUP SYSTEM
6 39 40 47 60 61 64
