#	Name:			59B
#	Creating user name:	drognan
#	Creation time:		Wed Sep  5 12:09:46 2018


#	Modifying user name:	drognan
#	Modification time:	Wed Sep  5 12:09:46 2018

@<TRIPOS>MOLECULE
59B
  28   32    0    0    0
SMALL
NO_CHARGES


@<TRIPOS>ATOM
   1 C1             1.0624    -0.1250     4.1106 C.ar    
   2 C2             2.1729     0.6913     3.9483 C.ar    
   3 C3             3.1273     0.3914     3.0003 C.ar    
   4 C4             2.9792    -0.7363     2.2002 C.ar    
   5 C5             1.8548    -1.5634     2.3647 C.ar    
   6 C6             0.8979    -1.2364     3.3357 C.ar    
   7 N7             1.6877    -2.6681     1.5965 N.2     
   8 C8             2.5689    -2.9971     0.6792 C.2     
   9 C9             3.7549    -2.1626     0.4756 C.2     
  10 N10            3.9299    -1.0479     1.2448 N.pl3   
  11 N11            5.0329    -0.5042     0.8682 N.2     
  12 N12            5.5490    -1.2073    -0.0797 N.2     
  13 N13            4.7926    -2.2199    -0.3382 N.2     
  14 N14            2.3770    -4.1292    -0.0922 N.pl3   
  15 C15            1.1936    -4.8537     0.0175 C.ar    
  16 C16           -0.0091    -4.1896     0.2416 C.ar    
  17 C17           -1.1810    -4.9031     0.3506 C.ar    
  18 C18           -1.1626    -6.2960     0.2354 C.ar    
  19 C19            0.0466    -6.9599     0.0098 C.ar    
  20 C20            1.2144    -6.2403    -0.1030 C.ar    
  21 C21           -2.4171    -7.0640     0.3521 C.2     
  22 O22           -3.4169    -6.6872    -0.2282 O.2     
  23 N23           -2.4547    -8.1833     1.1020 N.am    
  24 C24           -3.7138    -8.9175     1.3045 C.3     
  25 C25           -3.8962    -9.1593     2.8072 C.3     
  26 O26           -2.7145    -9.7684     3.3329 O.3     
  27 C27           -1.5408    -8.9595     3.2235 C.3     
  28 C28           -1.2367    -8.7106     1.7375 C.3     
@<TRIPOS>BOND
   1    1    6 ar
   2    1    2 ar
   3    2    3 ar
   4    3    4 ar
   5    4   10 1
   6    4    5 ar
   7    5    6 ar
   8    5    7 1
   9    7    8 2
  10    8    9 1
  11    8   14 1
  12    9   13 2
  13    9   10 1
  14   10   11 1
  15   11   12 2
  16   12   13 1
  17   14   15 1
  18   15   20 ar
  19   15   16 ar
  20   16   17 ar
  21   17   18 ar
  22   18   19 ar
  23   18   21 1
  24   19   20 ar
  25   21   22 2
  26   21   23 am
  27   23   28 1
  28   23   24 1
  29   24   25 1
  30   25   26 1
  31   26   27 1
  32   27   28 1





