@<TRIPOS>MOLECULE
5BR
  17   16    0    0    0
SMALL
NO_CHARGES


@<TRIPOS>ATOM
   1 C1            -0.0187     1.5258     0.0104 C.3     
   2 C2             0.0021    -0.0041     0.0020 C.3     
   3 C3             0.7182    -0.4975    -1.2568 C.3     
   4 C4             0.7390    -2.0273    -1.2652 C.3     
   5 C5             1.4551    -2.5207    -2.5240 C.3     
   6 Br6            1.4818    -4.4865    -2.5348 Br      
   7 H7             1.0039     1.9031     0.0027 H       
   8 H8            -0.5459     1.8868    -0.8726 H       
   9 H9            -0.5289     1.8773     0.9072 H       
  10 H10            0.5293    -0.3651     0.8851 H       
  11 H11           -1.0205    -0.3814     0.0098 H       
  12 H12            0.1910    -0.1364    -2.1398 H       
  13 H13            1.7408    -0.1202    -1.2645 H       
  14 H14            1.2661    -2.3884    -0.3821 H       
  15 H15           -0.2836    -2.4046    -1.2575 H       
  16 H16            0.9279    -2.1597    -3.4071 H       
  17 H17            2.4777    -2.1435    -2.5317 H       
@<TRIPOS>BOND
   1    1    2 1
   2    1    7 1
   3    1    8 1
   4    1    9 1
   5    2    3 1
   6    2   10 1
   7    2   11 1
   8    3    4 1
   9    3   12 1
  10    3   13 1
  11    4    5 1
  12    4   14 1
  13    4   15 1
  14    5    6 1
  15    5   16 1
  16    5   17 1





