#       Name:                5CS
#       Creating user name   gbret
#       Creation time:       Fri Sep  9 01:13:32 2016


#       File generated by GOLD software.
#

@<TRIPOS>MOLECULE
5CS
    32    32     1
SMALL
NO_CHARGES


@<TRIPOS>ATOM
      1 N1          -0.8391   2.0782  -3.9075 N.4            1 <1>                0.0000
      2 H2          -0.8254   1.0693  -3.9131 H              1 <1>                0.0000
      3 H3           0.1075   2.4275  -3.9147 H              1 <1>                0.0000
      4 H4          -1.3271   2.4125  -4.7250 H              1 <1>                0.0000
      5 C5          -1.5267   2.5520  -2.6989 C.3            1 <1>                0.0000
      6 C6          -0.7867   2.0451  -1.4594 C.3            1 <1>                0.0000
      7 S7          -0.7621   0.2313  -1.4694 S.3            1 <1>                0.0000
      8 C8           0.1417  -0.1729   0.0506 C.3            1 <1>                0.0000
      9 C9          -0.4969  -1.3895   0.7601 C.3            1 <1>                0.0000
     10 C10          0.7031  -2.2074   1.2768 C.3            1 <1>                0.0000
     11 O11          1.8839  -1.4695   0.9109 O.3            1 <1>                0.0000
     12 N12          1.5136  -0.6552  -0.2647 N.3            1 <1>                0.0000
     13 C13          0.6244  -2.3519   2.7979 C.3            1 <1>                0.0000
     14 N14          1.7051  -3.2316   3.2628 N.4            1 <1>                0.0000
     15 H15          1.6081  -4.1395   2.8332 H              1 <1>                0.0000
     16 H16          2.5963  -2.8328   3.0085 H              1 <1>                0.0000
     17 H17          1.6532  -3.3270   4.2659 H              1 <1>                0.0000
     18 C18          0.7693  -0.9961   3.4395 C.2            1 <1>                0.0000
     19 O19         -0.2189  -0.3160   3.6574 O.co2          1 <1>                0.0000
     20 O20          1.8747  -0.5792   3.7408 O.co2          1 <1>                0.0000
     21 C21         -1.5471   4.0588  -2.6906 C.2            1 <1>                0.0000
     22 O22         -1.0363   4.6805  -3.6066 O.co2          1 <1>                0.0000
     23 O23         -2.0745   4.6563  -1.7679 O.co2          1 <1>                0.0000
     24 H24         -2.5493   2.1747  -2.6912 H              1 <1>                0.0000
     25 H25          0.2359   2.4224  -1.4671 H              1 <1>                0.0000
     26 H26         -1.2969   2.3967  -0.5626 H              1 <1>                0.0000
     27 H27          0.1793   0.6894   0.7163 H              1 <1>                0.0000
     28 H28         -1.1201  -1.0611   1.5918 H              1 <1>                0.0000
     29 H29         -1.0825  -1.9778   0.0536 H              1 <1>                0.0000
     30 H30          0.7158  -3.1909   0.8071 H              1 <1>                0.0000
     31 H31          1.5165  -1.2123  -1.1060 H              1 <1>                0.0000
     32 H32         -0.3384  -2.7828   3.0726 H              1 <1>                0.0000
@<TRIPOS>BOND
    1    1    2 1     
    2    1    3 1     
    3    1    4 1     
    4    1    5 1     
    5    5    6 1     
    6    5   21 1     
    7    5   24 1     
    8    6    7 1     
    9    6   25 1     
   10    6   26 1     
   11    7    8 1     
   12    8   12 1     
   13    8    9 1     
   14    8   27 1     
   15    9   10 1     
   16    9   28 1     
   17    9   29 1     
   18   10   11 1     
   19   10   13 1     
   20   10   30 1     
   21   11   12 1     
   22   12   31 1     
   23   13   14 1     
   24   13   18 1     
   25   13   32 1     
   26   14   15 1     
   27   14   16 1     
   28   14   17 1     
   29   18   19 ar    
   30   18   20 ar    
   31   21   22 ar    
   32   21   23 ar    
@<TRIPOS>SUBSTRUCTURE
      1 ****           1
@<TRIPOS>SET
DONOR_HYDROGENS      STATIC     ATOMS    <user>   **** ""
7 2 3 4 31 15 16 17
ATOM$RED        STATIC     ATOMS    COLORGROUP SYSTEM
7 2 3 4 31 15 16 17
