#       Name:                5F2
#       Creating user name   gbret
#       Creation time:       Fri Sep  9 01:17:57 2016


#       File generated by GOLD software.
#

@<TRIPOS>MOLECULE
5F2
    59    60     1
SMALL
NO_CHARGES


@<TRIPOS>ATOM
      1 C1          -0.6668   5.9911   5.0495 C.3            1 <1>                0.0000
      2 C2          -0.7175   4.4620   5.0463 C.3            1 <1>                0.0000
      3 O3          -0.1833   3.9626   3.7919 O.3            1 <1>                0.0000
      4 C4          -0.1567   2.6249   3.6275 C.2            1 <1>                0.0000
      5 O5          -0.5686   1.8960   4.5084 O.2            1 <1>                0.0000
      6 C6           0.3705   2.0480   2.3830 C.2            1 <1>                0.0000
      7 C7           0.3968   0.7273   2.2207 C.2            1 <1>                0.0000
      8 C8           0.9375   0.1357   0.9445 C.3            1 <1>                0.0000
      9 C9           2.0492  -0.8619   1.2757 C.3            1 <1>                0.0000
     10 C10          3.2111  -0.1265   1.9466 C.3            1 <1>                0.0000
     11 C11          4.3304  -1.1211   2.3326 C.3            1 <1>                0.0000
     12 C12          5.6012  -0.2851   2.0632 C.3            1 <1>                0.0000
     13 N13          5.2118   0.7045   1.0518 N.am           1 <1>                0.0000
     14 C14          3.8750   0.8181   0.9691 C.2            1 <1>                0.0000
     15 O15          3.2866   1.5684   0.2195 O.2            1 <1>                0.0000
     16 N16         -0.1404  -0.5535   0.2307 N.am           1 <1>                0.0000
     17 C17         -0.0308  -0.7874  -1.0920 C.2            1 <1>                0.0000
     18 O18          0.9173  -0.3498  -1.7088 O.2            1 <1>                0.0000
     19 C19         -1.0866  -1.5927  -1.8048 C.3            1 <1>                0.0000
     20 C20         -2.2943  -0.7014  -2.1012 C.3            1 <1>                0.0000
     21 C21         -3.3973  -1.5338  -2.7026 C.ar           1 <1>                0.0000
     22 C22         -3.4688  -1.7002  -4.0731 C.ar           1 <1>                0.0000
     23 C23         -4.4806  -2.4636  -4.6247 C.ar           1 <1>                0.0000
     24 C24         -5.4205  -3.0611  -3.8060 C.ar           1 <1>                0.0000
     25 C25         -5.3485  -2.8954  -2.4355 C.ar           1 <1>                0.0000
     26 C26         -4.3342  -2.1355  -1.8835 C.ar           1 <1>                0.0000
     27 N27         -0.5406  -2.1093  -3.0623 N.am           1 <1>                0.0000
     28 C28         -0.0918  -1.2553  -4.0034 C.2            1 <1>                0.0000
     29 C29          0.4698  -1.7867  -5.2969 C.3            1 <1>                0.0000
     30 O30         -0.1400  -0.0591  -3.8093 O.2            1 <1>                0.0000
     31 H31          0.3662   6.3206   4.9376 H              1 <1>                0.0000
     32 H32         -1.2626   6.3761   4.2219 H              1 <1>                0.0000
     33 H33         -1.0678   6.3661   5.9911 H              1 <1>                0.0000
     34 H34         -0.1217   4.0770   5.8739 H              1 <1>                0.0000
     35 H35         -1.7505   4.1325   5.1582 H              1 <1>                0.0000
     36 H36          0.7366   2.6957   1.6002 H              1 <1>                0.0000
     37 H37          0.0308   0.0796   3.0035 H              1 <1>                0.0000
     38 H38          1.3384   0.9313   0.3165 H              1 <1>                0.0000
     39 H39          1.6632  -1.6248   1.9517 H              1 <1>                0.0000
     40 H40          2.3995  -1.3336   0.3576 H              1 <1>                0.0000
     41 H41          2.8614   0.4168   2.8245 H              1 <1>                0.0000
     42 H42          4.2610  -1.3974   3.3847 H              1 <1>                0.0000
     43 H43          4.3030  -2.0054   1.6959 H              1 <1>                0.0000
     44 H44          5.9240   0.2154   2.9761 H              1 <1>                0.0000
     45 H45          6.3979  -0.9227   1.6799 H              1 <1>                0.0000
     46 H46          5.8386   1.2115   0.5123 H              1 <1>                0.0000
     47 H47         -0.9329  -0.8415   0.7102 H              1 <1>                0.0000
     48 H48         -1.3959  -2.4257  -1.1736 H              1 <1>                0.0000
     49 H49         -2.6461  -0.2465  -1.1753 H              1 <1>                0.0000
     50 H50         -2.0052   0.0806  -2.8033 H              1 <1>                0.0000
     51 H51         -2.7344  -1.2334  -4.7128 H              1 <1>                0.0000
     52 H52         -4.5369  -2.5931  -5.6955 H              1 <1>                0.0000
     53 H53         -6.2114  -3.6570  -4.2370 H              1 <1>                0.0000
     54 H54         -6.0831  -3.3619  -1.7958 H              1 <1>                0.0000
     55 H55         -4.2779  -2.0060  -0.8128 H              1 <1>                0.0000
     56 H56         -0.5020  -3.0661  -3.2175 H              1 <1>                0.0000
     57 H57         -0.3324  -1.8846  -6.0284 H              1 <1>                0.0000
     58 H58          1.2247  -1.0976  -5.6756 H              1 <1>                0.0000
     59 H59          0.9233  -2.7624  -5.1225 H              1 <1>                0.0000
@<TRIPOS>BOND
    1    1    2 1     
    2    1   31 1     
    3    1   32 1     
    4    1   33 1     
    5    2    3 1     
    6    2   34 1     
    7    2   35 1     
    8    3    4 1     
    9    4    5 2     
   10    4    6 1     
   11    6    7 2     
   12    6   36 1     
   13    7    8 1     
   14    7   37 1     
   15    8    9 1     
   16    8   16 1     
   17    8   38 1     
   18    9   10 1     
   19    9   39 1     
   20    9   40 1     
   21   10   14 1     
   22   10   11 1     
   23   10   41 1     
   24   11   12 1     
   25   11   42 1     
   26   11   43 1     
   27   12   13 1     
   28   12   44 1     
   29   12   45 1     
   30   13   14 am    
   31   13   46 1     
   32   14   15 2     
   33   16   17 am    
   34   16   47 1     
   35   17   18 2     
   36   17   19 1     
   37   19   20 1     
   38   19   27 1     
   39   19   48 1     
   40   20   21 1     
   41   20   49 1     
   42   20   50 1     
   43   21   26 ar    
   44   21   22 ar    
   45   22   23 ar    
   46   22   51 1     
   47   23   24 ar    
   48   23   52 1     
   49   24   25 ar    
   50   24   53 1     
   51   25   26 ar    
   52   25   54 1     
   53   26   55 1     
   54   27   28 am    
   55   27   56 1     
   56   28   29 1     
   57   28   30 2     
   58   29   57 1     
   59   29   58 1     
   60   29   59 1     
@<TRIPOS>SUBSTRUCTURE
      1 ****           1
@<TRIPOS>SET
DONOR_HYDROGENS      STATIC     ATOMS    <user>   **** ""
3 46 47 56
ATOM$RED        STATIC     ATOMS    COLORGROUP SYSTEM
3 46 47 56
