#       Name:                5GS
#       Creating user name   gbret
#       Creation time:       Fri Sep  9 01:21:27 2016


#       File generated by GOLD software.
#

@<TRIPOS>MOLECULE
5GS
    39    40     1
SMALL
NO_CHARGES


@<TRIPOS>ATOM
      1 C1          -2.4295   1.6604  -0.2163 C.3            1 <1>                0.0000
      2 C2          -2.3386   0.1331  -0.2312 C.3            1 <1>                0.0000
      3 O3          -3.6395  -0.4458  -0.1110 O.3            1 <1>                0.0000
      4 C4          -1.6425  -0.3553  -1.5212 C.3            1 <1>                0.0000
      5 O5          -1.2763   0.7546  -2.3435 O.3            1 <1>                0.0000
      6 C6          -0.3830  -1.0911  -1.0127 C.3            1 <1>                0.0000
      7 C7           0.7970  -0.8398  -1.9536 C.3            1 <1>                0.0000
      8 O8           1.9173  -1.6200  -1.5315 O.3            1 <1>                0.0000
      9 P9           3.3350  -1.6029  -2.2942 P.3            1 <1>                0.0000
     10 O10          3.1629  -2.1866  -3.7143 O.co2          1 <1>                0.0000
     11 O11          3.8488  -0.1492  -2.3937 O.co2          1 <1>                0.0000
     12 O12          4.3968  -2.4924  -1.4735 O.3            1 <1>                0.0000
     13 P13          6.0048  -2.5656  -1.4390 P.3            1 <1>                0.0000
     14 O14          6.5615  -1.4026  -0.5492 O.co2          1 <1>                0.0000
     15 O15          6.4521  -3.9420  -0.8393 O.co2          1 <1>                0.0000
     16 O16          6.5653  -2.4233  -2.8950 O.co2          1 <1>                0.0000
     17 O17         -0.1206  -0.5183   0.2869 O.3            1 <1>                0.0000
     18 C18         -1.4173  -0.3654   0.9042 C.3            1 <1>                0.0000
     19 N19         -1.3553   0.6245   1.9824 N.am           1 <1>                0.0000
     20 C20         -0.3501   1.5528   1.9932 C.2            1 <1>                0.0000
     21 C21         -0.2933   2.4654   2.9867 C.2            1 <1>                0.0000
     22 C22         -1.2805   2.4417   4.0011 C.2            1 <1>                0.0000
     23 O23         -1.2503   3.2548   4.9072 O.2            1 <1>                0.0000
     24 N24         -2.2547   1.5106   3.9545 N.am           1 <1>                0.0000
     25 H25         -2.9347   1.4879   4.6459 H              1 <1>                0.0000
     26 C26         -2.2904   0.6158   2.9496 C.2            1 <1>                0.0000
     27 O27         -3.1751  -0.2177   2.9205 O.2            1 <1>                0.0000
     28 H28         -1.4269   2.0845  -0.2715 H              1 <1>                0.0000
     29 H29         -3.0143   1.9979  -1.0720 H              1 <1>                0.0000
     30 H30         -2.9119   1.9867   0.7050 H              1 <1>                0.0000
     31 H31         -4.2506  -0.1897  -0.8153 H              1 <1>                0.0000
     32 H32         -2.2910  -1.0383  -2.0699 H              1 <1>                0.0000
     33 H33         -0.8353   0.5052  -3.1672 H              1 <1>                0.0000
     34 H34         -0.5772  -2.1601  -0.9258 H              1 <1>                0.0000
     35 H35          0.5188  -1.1230  -2.9688 H              1 <1>                0.0000
     36 H36          1.0611   0.2174  -1.9308 H              1 <1>                0.0000
     37 H37         -1.7707  -1.3228   1.2869 H              1 <1>                0.0000
     38 H38          0.3946   1.5554   1.2109 H              1 <1>                0.0000
     39 H39          0.4950   3.2034   3.0074 H              1 <1>                0.0000
@<TRIPOS>BOND
    1    1    2 1     
    2    1   28 1     
    3    1   29 1     
    4    1   30 1     
    5    2   18 1     
    6    2    3 1     
    7    2    4 1     
    8    3   31 1     
    9    4    5 1     
   10    4    6 1     
   11    4   32 1     
   12    5   33 1     
   13    6    7 1     
   14    6   17 1     
   15    6   34 1     
   16    7    8 1     
   17    7   35 1     
   18    7   36 1     
   19    8    9 1     
   20    9   10 ar    
   21    9   11 ar    
   22    9   12 1     
   23   12   13 1     
   24   13   14 ar    
   25   13   15 ar    
   26   13   16 ar    
   27   17   18 1     
   28   18   19 1     
   29   18   37 1     
   30   19   26 1     
   31   19   20 1     
   32   20   21 2     
   33   20   38 1     
   34   21   22 1     
   35   21   39 1     
   36   22   23 2     
   37   22   24 1     
   38   24   25 1     
   39   24   26 1     
   40   26   27 2     
@<TRIPOS>SUBSTRUCTURE
      1 ****           1
@<TRIPOS>SET
DONOR_HYDROGENS      STATIC     ATOMS    <user>   **** ""
3 31 33 25
ATOM$RED        STATIC     ATOMS    COLORGROUP SYSTEM
3 31 33 25
