#       Name:                5H4
#       Creating user name   gbret
#       Creation time:       Fri Sep  9 01:22:07 2016


#       File generated by GOLD software.
#

@<TRIPOS>MOLECULE
5H4
    53    55     1
SMALL
NO_CHARGES


@<TRIPOS>ATOM
      1 C1           1.5357   3.1443  -2.2328 C.3            1 <1>                0.0000
      2 C2           2.0337   1.7876  -1.7304 C.3            1 <1>                0.0000
      3 N3           0.8840   0.9174  -1.4496 N.4            1 <1>                0.0000
      4 H4           0.2835   1.3617  -0.7713 H              1 <1>                0.0000
      5 C5           0.1325   0.6833  -2.6899 C.3            1 <1>                0.0000
      6 C6          -1.0997  -0.1712  -2.3862 C.3            1 <1>                0.0000
      7 C7          -1.9396  -0.3019  -3.6306 C.ar           1 <1>                0.0000
      8 C8          -2.9287   0.6267  -3.8974 C.ar           1 <1>                0.0000
      9 C9          -3.7001   0.5079  -5.0382 C.ar           1 <1>                0.0000
     10 C10         -3.4832  -0.5394  -5.9138 C.ar           1 <1>                0.0000
     11 C11         -2.4929  -1.4694  -5.6479 C.ar           1 <1>                0.0000
     12 F12         -2.2800  -2.4934  -6.5031 F              1 <1>                0.0000
     13 C13         -1.7172  -1.3464  -4.5073 C.ar           1 <1>                0.0000
     14 C14          1.3600  -0.3658  -0.9159 C.3            1 <1>                0.0000
     15 C15          2.0241  -0.1399   0.4178 C.ar           1 <1>                0.0000
     16 C16          3.3792   0.1304   0.4778 C.ar           1 <1>                0.0000
     17 C17          3.9925   0.3383   1.6994 C.ar           1 <1>                0.0000
     18 C18          3.2530   0.2772   2.8644 C.ar           1 <1>                0.0000
     19 C19          1.8920   0.0065   2.8077 C.ar           1 <1>                0.0000
     20 N20          1.1405  -0.0562   3.9850 N.pl3          1 <1>                0.0000
     21 C21          0.1669  -1.0249   4.1321 C.2            1 <1>                0.0000
     22 N22          0.0250  -1.9521   3.2223 N.pl3          1 <1>                0.0000
     23 H23          0.6034  -1.9601   2.4436 H              1 <1>                0.0000
     24 H24         -0.6587  -2.6324   3.3257 H              1 <1>                0.0000
     25 C25         -0.7102  -1.0127   5.3129 C.2            1 <1>                0.0000
     26 C26         -1.9931  -1.4725   5.3497 C.2            1 <1>                0.0000
     27 C27         -2.5842  -1.3402   6.5867 C.2            1 <1>                0.0000
     28 C28         -1.8108  -0.7912   7.5280 C.2            1 <1>                0.0000
     29 S29         -0.2690  -0.4098   6.9046 S.3            1 <1>                0.0000
     30 C30          1.2780  -0.1972   1.5783 C.ar           1 <1>                0.0000
     31 H31          2.3798   3.8263  -2.3343 H              1 <1>                0.0000
     32 H32          1.0522   3.0178  -3.2015 H              1 <1>                0.0000
     33 H33          0.8202   3.5552  -1.5205 H              1 <1>                0.0000
     34 H34          2.6612   1.3259  -2.4927 H              1 <1>                0.0000
     35 H35          2.6140   1.9286  -0.8185 H              1 <1>                0.0000
     36 H36         -0.1824   1.6387  -3.1097 H              1 <1>                0.0000
     37 H37          0.7677   0.1631  -3.4069 H              1 <1>                0.0000
     38 H38         -0.7833  -1.1606  -2.0558 H              1 <1>                0.0000
     39 H39         -1.6865   0.3039  -1.6000 H              1 <1>                0.0000
     40 H40         -3.0989   1.4453  -3.2138 H              1 <1>                0.0000
     41 H41         -4.4729   1.2334  -5.2452 H              1 <1>                0.0000
     42 H42         -4.0863  -0.6322  -6.8049 H              1 <1>                0.0000
     43 H43         -0.9441  -2.0712  -4.2991 H              1 <1>                0.0000
     44 H44          0.5152  -1.0432  -0.7911 H              1 <1>                0.0000
     45 H45          2.0776  -0.8040  -1.6096 H              1 <1>                0.0000
     46 H46          3.9597   0.1787  -0.4317 H              1 <1>                0.0000
     47 H47          5.0509   0.5484   1.7428 H              1 <1>                0.0000
     48 H48          3.7326   0.4394   3.8184 H              1 <1>                0.0000
     49 H49          1.3029   0.5806   4.6984 H              1 <1>                0.0000
     50 H50         -2.4961  -1.8977   4.4937 H              1 <1>                0.0000
     51 H51         -3.5983  -1.6565   6.7815 H              1 <1>                0.0000
     52 H52         -2.1189  -0.6164   8.5482 H              1 <1>                0.0000
     53 H53          0.2197  -0.4075   1.5307 H              1 <1>                0.0000
@<TRIPOS>BOND
    1    1    2 1     
    2    1   31 1     
    3    1   32 1     
    4    1   33 1     
    5    2    3 1     
    6    2   34 1     
    7    2   35 1     
    8    3    4 1     
    9    3    5 1     
   10    3   14 1     
   11    5    6 1     
   12    5   36 1     
   13    5   37 1     
   14    6    7 1     
   15    6   38 1     
   16    6   39 1     
   17    7   13 ar    
   18    7    8 ar    
   19    8    9 ar    
   20    8   40 1     
   21    9   10 ar    
   22    9   41 1     
   23   10   11 ar    
   24   10   42 1     
   25   11   12 1     
   26   11   13 ar    
   27   13   43 1     
   28   14   15 1     
   29   14   44 1     
   30   14   45 1     
   31   15   30 ar    
   32   15   16 ar    
   33   16   17 ar    
   34   16   46 1     
   35   17   18 ar    
   36   17   47 1     
   37   18   19 ar    
   38   18   48 1     
   39   19   20 1     
   40   19   30 ar    
   41   20   21 2     
   42   20   49 1     
   43   21   22 1     
   44   21   25 1     
   45   22   23 1     
   46   22   24 1     
   47   25   29 1     
   48   25   26 2     
   49   26   27 1     
   50   26   50 1     
   51   27   28 2     
   52   27   51 1     
   53   28   29 1     
   54   28   52 1     
   55   30   53 1     
@<TRIPOS>SUBSTRUCTURE
      1 ****           1
@<TRIPOS>SET
DONOR_HYDROGENS      STATIC     ATOMS    <user>   **** ""
4 4 49 23 24
ATOM$RED        STATIC     ATOMS    COLORGROUP SYSTEM
4 4 49 23 24
