#	Name:			5JT
#	Creating user name:	drognan
#	Creation time:		Wed Sep  5 12:09:46 2018


#	Modifying user name:	drognan
#	Modification time:	Wed Sep  5 12:09:46 2018

@<TRIPOS>MOLECULE
5JT
  18   20    0    0    0
SMALL
NO_CHARGES


@<TRIPOS>ATOM
   1 C1            -0.0177     1.4575     0.0101 C.2     
   2 C2             1.2625     1.8633     0.0000 C.2     
   3 N3             2.0950     0.7741    -0.0138 N.pl3   
   4 H4             3.0641     0.8149    -0.0225 H       
   5 C5             1.3585    -0.3784    -0.0129 C.ar    
   6 C6             0.0021    -0.0041     0.0020 C.ar    
   7 C7            -0.9742    -1.0117     0.0059 C.ar    
   8 N8            -0.5726    -2.2795    -0.0047 N.ar    
   9 C9             0.7120    -2.5867    -0.0186 C.ar    
  10 N10            1.6609    -1.6756    -0.0232 N.ar    
  11 N11           -2.3205    -0.6946     0.0209 N.3     
  12 C12           -2.6671     0.1827    -1.1045 C.3     
  13 C13           -4.1251     0.6292    -0.9748 C.3     
  14 C14           -5.0327    -0.6040    -0.9664 C.3     
  15 C15           -4.6194    -1.5242     0.1856 C.3     
  16 H16           -4.7569    -1.0045     1.1338 H       
  17 C17           -3.1471    -1.9083     0.0222 C.3     
  18 N18           -5.4485    -2.7367     0.1663 N.3     
@<TRIPOS>BOND
   1    1    6 1
   2    1    2 2
   3    2    3 1
   4    3    4 1
   5    3    5 1
   6    5   10 ar
   7    5    6 ar
   8    6    7 ar
   9    7    8 ar
  10    7   11 1
  11    8    9 ar
  12    9   10 ar
  13   11   17 1
  14   11   12 1
  15   12   13 1
  16   13   14 1
  17   14   15 1
  18   15   16 1
  19   15   17 1
  20   15   18 1





