#       Name:                5KE
#       Creating user name   gbret
#       Creation time:       Fri Sep  9 01:26:42 2016


#       File generated by GOLD software.
#

@<TRIPOS>MOLECULE
5KE
    52    55     1
SMALL
NO_CHARGES


@<TRIPOS>ATOM
      1 O1           1.4259   7.0259  -0.1734 O.3            1 <1>                0.0000
      2 C2           1.4444   5.6670  -0.1809 C.ar           1 <1>                0.0000
      3 C3           1.4481   4.9788  -1.3855 C.ar           1 <1>                0.0000
      4 C4           1.4674   3.5975  -1.3904 C.ar           1 <1>                0.0000
      5 C5           1.4824   2.9009  -0.1961 C.ar           1 <1>                0.0000
      6 C6           1.4782   3.5845   1.0057 C.ar           1 <1>                0.0000
      7 C7           1.4653   4.9658   1.0160 C.ar           1 <1>                0.0000
      8 C8           1.5029   1.3941  -0.2044 C.3            1 <1>                0.0000
      9 C9           2.7610   0.8970   0.5095 C.3            1 <1>                0.0000
     10 C10          2.8349  -0.6286   0.4280 C.3            1 <1>                0.0000
     11 C11          1.6445  -1.2367   1.1771 C.3            1 <1>                0.0000
     12 C12          0.3704  -0.6436   0.6175 C.2            1 <1>                0.0000
     13 C13          0.2623   0.8621   0.5209 C.3            1 <1>                0.0000
     14 C14         -0.6355  -1.4312   0.2175 C.2            1 <1>                0.0000
     15 C15         -0.5092  -2.9048   0.3202 C.ar           1 <1>                0.0000
     16 C16          0.4482  -3.5784  -0.4372 C.ar           1 <1>                0.0000
     17 C17          0.5636  -4.9490  -0.3391 C.ar           1 <1>                0.0000
     18 C18         -0.2728  -5.6583   0.5125 C.ar           1 <1>                0.0000
     19 O19         -0.1567  -7.0087   0.6070 O.3            1 <1>                0.0000
     20 C20         -1.2272  -4.9905   1.2681 C.ar           1 <1>                0.0000
     21 C21         -1.3437  -3.6194   1.1788 C.ar           1 <1>                0.0000
     22 C22         -1.8760  -0.8297  -0.3281 C.ar           1 <1>                0.0000
     23 C23         -2.6878  -0.0421   0.4872 C.ar           1 <1>                0.0000
     24 C24         -3.8406   0.5162  -0.0234 C.ar           1 <1>                0.0000
     25 C25         -4.1935   0.2945  -1.3478 C.ar           1 <1>                0.0000
     26 O26         -5.3300   0.8460  -1.8479 O.3            1 <1>                0.0000
     27 C27         -3.3873  -0.4893  -2.1623 C.ar           1 <1>                0.0000
     28 C28         -2.2302  -1.0458  -1.6593 C.ar           1 <1>                0.0000
     29 H29          2.3039   7.4312  -0.1796 H              1 <1>                0.0000
     30 H30          1.4357   5.5225  -2.3186 H              1 <1>                0.0000
     31 H31          1.4703   3.0613  -2.3278 H              1 <1>                0.0000
     32 H32          1.4896   3.0381   1.9373 H              1 <1>                0.0000
     33 H33          1.4620   5.4993   1.9550 H              1 <1>                0.0000
     34 H34          1.5034   1.0362  -1.2340 H              1 <1>                0.0000
     35 H35          3.6418   1.3283   0.0337 H              1 <1>                0.0000
     36 H36          2.7290   1.2029   1.5552 H              1 <1>                0.0000
     37 H37          2.8041  -0.9388  -0.6164 H              1 <1>                0.0000
     38 H38          3.7643  -0.9723   0.8823 H              1 <1>                0.0000
     39 H39          1.6374  -2.3176   1.0373 H              1 <1>                0.0000
     40 H40          1.7218  -1.0026   2.2389 H              1 <1>                0.0000
     41 H41          0.2116   1.2905   1.5219 H              1 <1>                0.0000
     42 H42         -0.6329   1.1296  -0.0406 H              1 <1>                0.0000
     43 H43          1.0986  -3.0273  -1.1003 H              1 <1>                0.0000
     44 H44          1.3050  -5.4713  -0.9255 H              1 <1>                0.0000
     45 H45          0.4621  -7.3035   1.2891 H              1 <1>                0.0000
     46 H46         -1.8765  -5.5451   1.9294 H              1 <1>                0.0000
     47 H47         -2.0860  -3.1005   1.7671 H              1 <1>                0.0000
     48 H48         -2.4142   0.1301   1.5177 H              1 <1>                0.0000
     49 H49         -4.4698   1.1263   0.6077 H              1 <1>                0.0000
     50 H50         -5.2044   1.7236  -2.2341 H              1 <1>                0.0000
     51 H51         -3.6647  -0.6602  -3.1920 H              1 <1>                0.0000
     52 H52         -1.6033  -1.6550  -2.2934 H              1 <1>                0.0000
@<TRIPOS>BOND
    1    1    2 1     
    2    1   29 1     
    3    2    7 ar    
    4    2    3 ar    
    5    3    4 ar    
    6    3   30 1     
    7    4    5 ar    
    8    4   31 1     
    9    5    6 ar    
   10    5    8 1     
   11    6    7 ar    
   12    6   32 1     
   13    7   33 1     
   14    8   13 1     
   15    8    9 1     
   16    8   34 1     
   17    9   10 1     
   18    9   35 1     
   19    9   36 1     
   20   10   11 1     
   21   10   37 1     
   22   10   38 1     
   23   11   12 1     
   24   11   39 1     
   25   11   40 1     
   26   12   13 1     
   27   12   14 2     
   28   13   41 1     
   29   13   42 1     
   30   14   15 1     
   31   14   22 1     
   32   15   21 ar    
   33   15   16 ar    
   34   16   17 ar    
   35   16   43 1     
   36   17   18 ar    
   37   17   44 1     
   38   18   19 1     
   39   18   20 ar    
   40   19   45 1     
   41   20   21 ar    
   42   20   46 1     
   43   21   47 1     
   44   22   28 ar    
   45   22   23 ar    
   46   23   24 ar    
   47   23   48 1     
   48   24   25 ar    
   49   24   49 1     
   50   25   26 1     
   51   25   27 ar    
   52   26   50 1     
   53   27   28 ar    
   54   27   51 1     
   55   28   52 1     
@<TRIPOS>SUBSTRUCTURE
      1 ****           1
@<TRIPOS>SET
DONOR_HYDROGENS      STATIC     ATOMS    <user>   **** ""
3 29 45 50
ATOM$RED        STATIC     ATOMS    COLORGROUP SYSTEM
3 29 45 50
