#       Name:                5KP
#       Creating user name   gbret
#       Creation time:       Fri Sep  9 01:27:03 2016


#       File generated by GOLD software.
#

@<TRIPOS>MOLECULE
5KP
    56    59     1
SMALL
NO_CHARGES


@<TRIPOS>ATOM
      1 C1          -1.8576   5.1347  -1.9684 C.3            1 <1>                0.0000
      2 C2          -1.8803   3.6335  -2.0983 C.2            1 <1>                0.0000
      3 N3          -1.9961   2.9263  -3.2422 N.pl3          1 <1>                0.0000
      4 N4          -1.9835   1.6588  -3.0237 N.2            1 <1>                0.0000
      5 C5          -1.8609   1.4085  -1.7436 C.2            1 <1>                0.0000
      6 C6          -1.7813   2.7223  -1.0771 C.2            1 <1>                0.0000
      7 C7          -1.6391   2.7514   0.3765 C.2            1 <1>                0.0000
      8 C8          -1.5542   4.0698   1.1015 C.3            1 <1>                0.0000
      9 N9          -1.5865   1.6369   1.0422 N.2            1 <1>                0.0000
     10 N10         -1.6589   0.3817   0.4427 N.am           1 <1>                0.0000
     11 C11         -1.5890  -0.8084   1.2941 C.3            1 <1>                0.0000
     12 C12         -0.1291  -1.2387   1.4504 C.3            1 <1>                0.0000
     13 C13         -0.0561  -2.4816   2.3396 C.3            1 <1>                0.0000
     14 C14          1.3819  -2.9054   2.4935 C.2            1 <1>                0.0000
     15 O15          2.2617  -2.2753   1.9459 O.2            1 <1>                0.0000
     16 N16          1.6902  -3.9845   3.2397 N.am           1 <1>                0.0000
     17 C17          3.0298  -4.3084   3.4814 C.ar           1 <1>                0.0000
     18 C18          4.0051  -3.3208   3.4280 C.ar           1 <1>                0.0000
     19 C19          5.3264  -3.6429   3.6674 C.ar           1 <1>                0.0000
     20 C20          5.6799  -4.9473   3.9601 C.ar           1 <1>                0.0000
     21 C21          4.7111  -5.9340   4.0142 C.ar           1 <1>                0.0000
     22 Cl22         5.1592  -7.5703   4.3821 Cl             1 <1>                0.0000
     23 C23          3.3860  -5.6165   3.7807 C.ar           1 <1>                0.0000
     24 C24          2.3310  -6.6910   3.8396 C.3            1 <1>                0.0000
     25 C25         -1.7866   0.2168  -0.8903 C.2            1 <1>                0.0000
     26 O26         -1.8465  -0.8988  -1.3752 O.2            1 <1>                0.0000
     27 C27         -2.1164   3.5030  -4.5132 C.ar           1 <1>                0.0000
     28 C28         -3.0540   3.0140  -5.4133 C.ar           1 <1>                0.0000
     29 C29         -3.1700   3.5846  -6.6656 C.ar           1 <1>                0.0000
     30 C30         -2.3535   4.6416  -7.0238 C.ar           1 <1>                0.0000
     31 C31         -1.4188   5.1308  -6.1298 C.ar           1 <1>                0.0000
     32 C32         -1.3021   4.5685  -4.8737 C.ar           1 <1>                0.0000
     33 H33         -0.8246   5.4824  -1.9528 H              1 <1>                0.0000
     34 H34         -2.3782   5.5806  -2.8159 H              1 <1>                0.0000
     35 H35         -2.3533   5.4268  -1.0427 H              1 <1>                0.0000
     36 H36         -2.5565   4.3987   1.3762 H              1 <1>                0.0000
     37 H37         -0.9513   3.9512   2.0018 H              1 <1>                0.0000
     38 H38         -1.0934   4.8132   0.4510 H              1 <1>                0.0000
     39 H39         -2.0071  -0.5790   2.2743 H              1 <1>                0.0000
     40 H40         -2.1590  -1.6168   0.8361 H              1 <1>                0.0000
     41 H41          0.2890  -1.4681   0.4702 H              1 <1>                0.0000
     42 H42          0.4409  -0.4303   1.9084 H              1 <1>                0.0000
     43 H43         -0.4742  -2.2522   3.3197 H              1 <1>                0.0000
     44 H44         -0.6261  -3.2900   1.8816 H              1 <1>                0.0000
     45 H45          0.9835  -4.5367   3.6092 H              1 <1>                0.0000
     46 H46          3.7302  -2.3018   3.1991 H              1 <1>                0.0000
     47 H47          6.0848  -2.8751   3.6255 H              1 <1>                0.0000
     48 H48          6.7140  -5.1966   4.1466 H              1 <1>                0.0000
     49 H49          1.9443  -6.7652   4.8560 H              1 <1>                0.0000
     50 H50          1.5177  -6.4394   3.1589 H              1 <1>                0.0000
     51 H51          2.7680  -7.6456   3.5465 H              1 <1>                0.0000
     52 H52         -3.6915   2.1881  -5.1344 H              1 <1>                0.0000
     53 H53         -3.8991   3.2047  -7.3661 H              1 <1>                0.0000
     54 H54         -2.4456   5.0857  -8.0040 H              1 <1>                0.0000
     55 H55         -0.7825   5.9564  -6.4124 H              1 <1>                0.0000
     56 H56         -0.5719   4.9511  -4.1759 H              1 <1>                0.0000
@<TRIPOS>BOND
    1    1    2 1     
    2    1   33 1     
    3    1   34 1     
    4    1   35 1     
    5    2    6 2     
    6    2    3 1     
    7    3    4 1     
    8    3   27 1     
    9    4    5 2     
   10    5   25 1     
   11    5    6 1     
   12    6    7 1     
   13    7    8 1     
   14    7    9 2     
   15    8   36 1     
   16    8   37 1     
   17    8   38 1     
   18    9   10 1     
   19   10   11 1     
   20   10   25 am    
   21   11   12 1     
   22   11   39 1     
   23   11   40 1     
   24   12   13 1     
   25   12   41 1     
   26   12   42 1     
   27   13   14 1     
   28   13   43 1     
   29   13   44 1     
   30   14   15 2     
   31   14   16 am    
   32   16   17 1     
   33   16   45 1     
   34   17   23 ar    
   35   17   18 ar    
   36   18   19 ar    
   37   18   46 1     
   38   19   20 ar    
   39   19   47 1     
   40   20   21 ar    
   41   20   48 1     
   42   21   22 1     
   43   21   23 ar    
   44   23   24 1     
   45   24   49 1     
   46   24   50 1     
   47   24   51 1     
   48   25   26 2     
   49   27   32 ar    
   50   27   28 ar    
   51   28   29 ar    
   52   28   52 1     
   53   29   30 ar    
   54   29   53 1     
   55   30   31 ar    
   56   30   54 1     
   57   31   32 ar    
   58   31   55 1     
   59   32   56 1     
@<TRIPOS>SUBSTRUCTURE
      1 ****           1
@<TRIPOS>SET
DONOR_HYDROGENS      STATIC     ATOMS    <user>   **** ""
1 45
ATOM$RED        STATIC     ATOMS    COLORGROUP SYSTEM
1 45
