#       Name:                5N1
#       Creating user name   gbret
#       Creation time:       Fri Sep  9 01:31:23 2016


#       File generated by GOLD software.
#

@<TRIPOS>MOLECULE
5N1
    50    53     1
SMALL
NO_CHARGES


@<TRIPOS>ATOM
      1 C1          -1.9178   0.7294  -1.5603 C.3            1 <1>                0.0000
      2 C2          -1.8970  -0.8005  -1.5687 C.3            1 <1>                0.0000
      3 C3          -1.1917  -1.2865  -2.8086 C.ar           1 <1>                0.0000
      4 N4          -1.8701  -1.5078  -3.9226 N.ar           1 <1>                0.0000
      5 C5          -1.2625  -1.9348  -5.0204 C.ar           1 <1>                0.0000
      6 N6          -2.0137  -2.1523  -6.1613 N.pl3          1 <1>                0.0000
      7 N7           0.0428  -2.1593  -5.0581 N.ar           1 <1>                0.0000
      8 C8           0.7970  -1.9622  -3.9835 C.ar           1 <1>                0.0000
      9 N9           2.1590  -2.1978  -4.0273 N.pl3          1 <1>                0.0000
     10 C10          0.1864  -1.5035  -2.7988 C.ar           1 <1>                0.0000
     11 C11          0.9583  -1.2757  -1.6143 C.1            1 <1>                0.0000
     12 C12          1.5911  -1.0890  -0.6432 C.1            1 <1>                0.0000
     13 C13          2.3845  -0.8549   0.5743 C.3            1 <1>                0.0000
     14 C14          3.4533   0.2026   0.2911 C.3            1 <1>                0.0000
     15 C15          1.4797  -0.3714   1.6783 C.ar           1 <1>                0.0000
     16 C16          0.7570   0.7928   1.5153 C.ar           1 <1>                0.0000
     17 C17         -0.0802   1.2422   2.5347 C.ar           1 <1>                0.0000
     18 C18         -0.1862   0.5134   3.7186 C.ar           1 <1>                0.0000
     19 C19          0.5391  -0.6527   3.8781 C.ar           1 <1>                0.0000
     20 O20          0.6142  -1.5351   4.9171 O.3            1 <1>                0.0000
     21 C21          1.1857  -2.7344   4.3622 C.3            1 <1>                0.0000
     22 O22          1.9728  -2.2581   3.2547 O.3            1 <1>                0.0000
     23 C23          1.3714  -1.1007   2.8527 C.ar           1 <1>                0.0000
     24 C24         -0.8565   2.4938   2.3607 C.ar           1 <1>                0.0000
     25 C25         -0.7676   3.2356   1.1791 C.ar           1 <1>                0.0000
     26 C26         -1.5070   4.3940   1.0590 C.ar           1 <1>                0.0000
     27 N27         -2.2885   4.8034   2.0400 N.ar           1 <1>                0.0000
     28 C28         -2.4009   4.1330   3.1709 C.ar           1 <1>                0.0000
     29 C29         -1.7016   2.9610   3.3717 C.ar           1 <1>                0.0000
     30 H30         -0.8952   1.1067  -1.5680 H              1 <1>                0.0000
     31 H31         -2.4450   1.0904  -2.4433 H              1 <1>                0.0000
     32 H32         -2.4280   1.0809  -0.6635 H              1 <1>                0.0000
     33 H33         -1.3698  -1.1615  -0.6856 H              1 <1>                0.0000
     34 H34         -2.9196  -1.1778  -1.5609 H              1 <1>                0.0000
     35 H35         -2.9703  -1.9924  -6.1499 H              1 <1>                0.0000
     36 H36         -1.5838  -2.4647  -6.9728 H              1 <1>                0.0000
     37 H37          2.5711  -2.5098  -4.8481 H              1 <1>                0.0000
     38 H38          2.7022  -2.0511  -3.2372 H              1 <1>                0.0000
     39 H39          2.8649  -1.7846   0.8793 H              1 <1>                0.0000
     40 H40          2.9729   1.1322  -0.0139 H              1 <1>                0.0000
     41 H41          4.0409   0.3759   1.1927 H              1 <1>                0.0000
     42 H42          4.1078  -0.1471  -0.5074 H              1 <1>                0.0000
     43 H43          0.8404   1.3559   0.5976 H              1 <1>                0.0000
     44 H44         -0.8341   0.8597   4.5103 H              1 <1>                0.0000
     45 H45          1.8194  -3.2319   5.0964 H              1 <1>                0.0000
     46 H46          0.4016  -3.4065   4.0136 H              1 <1>                0.0000
     47 H47         -0.1294   2.9068   0.3723 H              1 <1>                0.0000
     48 H48         -1.4449   4.9738   0.1500 H              1 <1>                0.0000
     49 H49         -3.0523   4.5047   3.9481 H              1 <1>                0.0000
     50 H50         -1.7985   2.4172   4.2998 H              1 <1>                0.0000
@<TRIPOS>BOND
    1    1    2 1     
    2    1   30 1     
    3    1   31 1     
    4    1   32 1     
    5    2    3 1     
    6    2   33 1     
    7    2   34 1     
    8    3   10 ar    
    9    3    4 ar    
   10    4    5 ar    
   11    5    6 1     
   12    5    7 ar    
   13    6   35 1     
   14    6   36 1     
   15    7    8 ar    
   16    8    9 1     
   17    8   10 ar    
   18    9   37 1     
   19    9   38 1     
   20   10   11 1     
   21   11   12 3     
   22   12   13 1     
   23   13   14 1     
   24   13   15 1     
   25   13   39 1     
   26   14   40 1     
   27   14   41 1     
   28   14   42 1     
   29   15   23 ar    
   30   15   16 ar    
   31   16   17 ar    
   32   16   43 1     
   33   17   18 ar    
   34   17   24 1     
   35   18   19 ar    
   36   18   44 1     
   37   19   23 ar    
   38   19   20 1     
   39   20   21 1     
   40   21   22 1     
   41   21   45 1     
   42   21   46 1     
   43   22   23 1     
   44   24   29 ar    
   45   24   25 ar    
   46   25   26 ar    
   47   25   47 1     
   48   26   27 ar    
   49   26   48 1     
   50   27   28 ar    
   51   28   29 ar    
   52   28   49 1     
   53   29   50 1     
@<TRIPOS>SUBSTRUCTURE
      1 ****           1
@<TRIPOS>SET
DONOR_HYDROGENS      STATIC     ATOMS    <user>   **** ""
4 35 36 37 38
ATOM$RED        STATIC     ATOMS    COLORGROUP SYSTEM
4 35 36 37 38
