#       Name:                5PU
#       Creating user name   gbret
#       Creation time:       Fri Sep  9 01:36:40 2016


#       File generated by GOLD software.
#

@<TRIPOS>MOLECULE
5PU
    33    33     1
SMALL
NO_CHARGES


@<TRIPOS>ATOM
      1 O1           2.6014   6.2442  -0.0467 O.3            1 <1>                0.0000
      2 N2           2.6206   4.8283  -0.0545 N.am           1 <1>                0.0000
      3 C3           1.4627   4.1386  -0.0471 C.2            1 <1>                0.0000
      4 O4           0.4043   4.7307  -0.0338 O.2            1 <1>                0.0000
      5 C5           1.4831   2.6318  -0.0554 C.3            1 <1>                0.0000
      6 C6           0.0477   2.1022  -0.0446 C.3            1 <1>                0.0000
      7 C7           0.0685   0.5724  -0.0530 C.3            1 <1>                0.0000
      8 C8          -1.3602   0.0422   0.0836 C.3            1 <1>                0.0000
      9 C9          -1.3297  -1.4601   0.1987 C.ar           1 <1>                0.0000
     10 C10         -1.3896  -2.2396  -0.9431 C.ar           1 <1>                0.0000
     11 C11         -1.3625  -3.6150  -0.8454 C.ar           1 <1>                0.0000
     12 C12         -1.2740  -4.2211   0.4104 C.ar           1 <1>                0.0000
     13 C13         -1.2134  -3.4277   1.5589 C.ar           1 <1>                0.0000
     14 C14         -1.2362  -2.0533   1.4454 C.ar           1 <1>                0.0000
     15 C15         -1.2451  -5.6919   0.5232 C.2            1 <1>                0.0000
     16 O16         -1.2986  -6.3835  -0.4839 O.co2          1 <1>                0.0000
     17 O17         -1.1675  -6.2193   1.6238 O.co2          1 <1>                0.0000
     18 C18          0.6634   0.0852  -1.3490 C.2            1 <1>                0.0000
     19 O19          1.6703  -0.6022  -1.3373 O.co2          1 <1>                0.0000
     20 O20          0.1378   0.3785  -2.4093 O.co2          1 <1>                0.0000
     21 H21          3.4793   6.6495  -0.0529 H              1 <1>                0.0000
     22 H22          3.4671   4.3548  -0.0651 H              1 <1>                0.0000
     23 H23          1.9933   2.2803  -0.9522 H              1 <1>                0.0000
     24 H24          2.0103   2.2707   0.8276 H              1 <1>                0.0000
     25 H25         -0.4625   2.4537   0.8522 H              1 <1>                0.0000
     26 H26         -0.4795   2.4633  -0.9276 H              1 <1>                0.0000
     27 H27          0.6708   0.2126   0.7812 H              1 <1>                0.0000
     28 H28         -1.8212   0.4657   0.9759 H              1 <1>                0.0000
     29 H29         -1.9391   0.3276  -0.7948 H              1 <1>                0.0000
     30 H30         -1.4580  -1.7697  -1.9132 H              1 <1>                0.0000
     31 H31         -1.4101  -4.2221  -1.7373 H              1 <1>                0.0000
     32 H32         -1.1449  -3.8894   2.5328 H              1 <1>                0.0000
     33 H33         -1.1891  -1.4388   2.3323 H              1 <1>                0.0000
@<TRIPOS>BOND
    1    1    2 1     
    2    1   21 1     
    3    2    3 am    
    4    2   22 1     
    5    3    4 2     
    6    3    5 1     
    7    5    6 1     
    8    5   23 1     
    9    5   24 1     
   10    6    7 1     
   11    6   25 1     
   12    6   26 1     
   13    7    8 1     
   14    7   18 1     
   15    7   27 1     
   16    8    9 1     
   17    8   28 1     
   18    8   29 1     
   19    9   14 ar    
   20    9   10 ar    
   21   10   11 ar    
   22   10   30 1     
   23   11   12 ar    
   24   11   31 1     
   25   12   13 ar    
   26   12   15 1     
   27   13   14 ar    
   28   13   32 1     
   29   14   33 1     
   30   15   16 ar    
   31   15   17 ar    
   32   18   19 ar    
   33   18   20 ar    
@<TRIPOS>SUBSTRUCTURE
      1 ****           1
@<TRIPOS>SET
DONOR_HYDROGENS      STATIC     ATOMS    <user>   **** ""
2 21 22
ATOM$RED        STATIC     ATOMS    COLORGROUP SYSTEM
2 21 22
