#       Name:                5Q5
#       Creating user name   gbret
#       Creation time:       Fri Sep  9 01:37:24 2016


#       File generated by GOLD software.
#

@<TRIPOS>MOLECULE
5Q5
    21    21     1
SMALL
NO_CHARGES


@<TRIPOS>ATOM
      1 C1          -0.3069   1.9776  -1.1330 C.3            1 <1>                0.0000
      2 C2           0.0057   0.5035  -1.1476 C.ar           1 <1>                0.0000
      3 C3           0.0219  -0.1881  -2.3432 C.ar           1 <1>                0.0000
      4 C4           0.3086  -1.5406  -2.3574 C.ar           1 <1>                0.0000
      5 C5           0.5800  -2.2055  -1.1754 C.ar           1 <1>                0.0000
      6 C6           0.5654  -1.5199   0.0232 C.ar           1 <1>                0.0000
      7 C7           0.2834  -0.1599   0.0403 C.ar           1 <1>                0.0000
      8 N8           0.2683   0.5376   1.2527 N.am           1 <1>                0.0000
      9 C9          -0.3936   0.0325   2.3126 C.2            1 <1>                0.0000
     10 N10         -0.4817   0.7443   3.4537 N.am           1 <1>                0.0000
     11 S11         -1.1223  -1.5132   2.2094 S.2            1 <1>                0.0000
     12 H12          0.6165   2.5460  -1.2441 H              1 <1>                0.0000
     13 H13         -0.9805   2.2143  -1.9566 H              1 <1>                0.0000
     14 H14         -0.7828   2.2388  -0.1879 H              1 <1>                0.0000
     15 H15         -0.1900   0.3281  -3.2679 H              1 <1>                0.0000
     16 H16          0.3202  -2.0791  -3.2935 H              1 <1>                0.0000
     17 H17          0.8032  -3.2621  -1.1899 H              1 <1>                0.0000
     18 H18          0.7775  -2.0397   0.9458 H              1 <1>                0.0000
     19 H19          0.7342   1.3848   1.3307 H              1 <1>                0.0000
     20 H20         -0.9580   0.3808   4.2166 H              1 <1>                0.0000
     21 H21         -0.0687   1.6201   3.5121 H              1 <1>                0.0000
@<TRIPOS>BOND
    1    1    2 1     
    2    1   12 1     
    3    1   13 1     
    4    1   14 1     
    5    2    7 ar    
    6    2    3 ar    
    7    3    4 ar    
    8    3   15 1     
    9    4    5 ar    
   10    4   16 1     
   11    5    6 ar    
   12    5   17 1     
   13    6    7 ar    
   14    6   18 1     
   15    7    8 1     
   16    8    9 am    
   17    8   19 1     
   18    9   10 am    
   19    9   11 2     
   20   10   20 1     
   21   10   21 1     
@<TRIPOS>SUBSTRUCTURE
      1 ****           1
@<TRIPOS>SET
DONOR_HYDROGENS      STATIC     ATOMS    <user>   **** ""
3 19 20 21
ATOM$RED        STATIC     ATOMS    COLORGROUP SYSTEM
3 19 20 21
