#       Name:                5R9
#       Creating user name   gbret
#       Creation time:       Fri Sep  9 01:39:21 2016


#       File generated by GOLD software.
#

@<TRIPOS>MOLECULE
5R9
    41    43     1
SMALL
NO_CHARGES


@<TRIPOS>ATOM
      1 C1          -0.3686   3.4410  -2.6307 C.3            1 <1>                0.0000
      2 N2          -0.3487   1.9721  -2.6388 N.3            1 <1>                0.0000
      3 C3          -1.7164   1.4230  -2.8018 C.3            1 <1>                0.0000
      4 C4          -1.6090   0.0386  -3.3886 C.3            1 <1>                0.0000
      5 C5          -1.5623  -1.0580  -2.3125 C.3            1 <1>                0.0000
      6 N6          -0.7030  -0.6940  -1.1636 N.4            1 <1>                0.0000
      7 H7          -1.2125  -0.0667  -0.5595 H              1 <1>                0.0000
      8 C8          -0.3697  -1.9120  -0.4130 C.3            1 <1>                0.0000
      9 C9           0.4021  -1.5423   0.8274 C.ar           1 <1>                0.0000
     10 C10          1.7925  -1.4643   0.7744 C.ar           1 <1>                0.0000
     11 C11          2.5197  -1.1328   1.8758 C.ar           1 <1>                0.0000
     12 C12          1.8638  -0.8633   3.0898 C.ar           1 <1>                0.0000
     13 N13          2.5518  -0.5346   4.1878 N.ar           1 <1>                0.0000
     14 C14          1.9451  -0.2820   5.3220 C.ar           1 <1>                0.0000
     15 C15          0.5582  -0.3433   5.4411 C.ar           1 <1>                0.0000
     16 C16         -0.2050  -0.6731   4.3576 C.ar           1 <1>                0.0000
     17 C17          0.4501  -0.9432   3.1412 C.ar           1 <1>                0.0000
     18 C18         -0.2684  -1.2833   1.9836 C.ar           1 <1>                0.0000
     19 C19          0.5229  -0.0517  -1.5796 C.3            1 <1>                0.0000
     20 C20          0.3215   1.4739  -1.5173 C.3            1 <1>                0.0000
     21 H21          0.6539   3.8183  -2.6384 H              1 <1>                0.0000
     22 H22         -0.8958   3.8021  -3.5138 H              1 <1>                0.0000
     23 H23         -0.8788   3.7925  -1.7339 H              1 <1>                0.0000
     24 H24         -2.2087   1.3720  -1.8306 H              1 <1>                0.0000
     25 H25         -2.2900   2.0620  -3.4732 H              1 <1>                0.0000
     26 H26         -2.4694  -0.1380  -4.0342 H              1 <1>                0.0000
     27 H27         -0.7020  -0.0195  -3.9903 H              1 <1>                0.0000
     28 H28         -2.5744  -1.2401  -1.9512 H              1 <1>                0.0000
     29 H29         -1.1805  -1.9752  -2.7609 H              1 <1>                0.0000
     30 H30         -1.2878  -2.4268  -0.1297 H              1 <1>                0.0000
     31 H31          0.2373  -2.5684  -1.0365 H              1 <1>                0.0000
     32 H32          2.3011  -1.6708  -0.1557 H              1 <1>                0.0000
     33 H33          3.5967  -1.0772   1.8176 H              1 <1>                0.0000
     34 H34          2.5359  -0.0198   6.1872 H              1 <1>                0.0000
     35 H35          0.0872  -0.1305   6.3894 H              1 <1>                0.0000
     36 H36         -1.2811  -0.7257   4.4320 H              1 <1>                0.0000
     37 H37         -1.3464  -1.3429   2.0113 H              1 <1>                0.0000
     38 H38          1.3334  -0.3416  -0.9110 H              1 <1>                0.0000
     39 H39          0.7632  -0.3478  -2.6007 H              1 <1>                0.0000
     40 H40          1.2967   1.9557  -1.4465 H              1 <1>                0.0000
     41 H41         -0.2553   1.7172  -0.6250 H              1 <1>                0.0000
@<TRIPOS>BOND
    1    1    2 1     
    2    1   21 1     
    3    1   22 1     
    4    1   23 1     
    5    2   20 1     
    6    2    3 1     
    7    3    4 1     
    8    3   24 1     
    9    3   25 1     
   10    4    5 1     
   11    4   26 1     
   12    4   27 1     
   13    5    6 1     
   14    5   28 1     
   15    5   29 1     
   16    6    7 1     
   17    6    8 1     
   18    6   19 1     
   19    8    9 1     
   20    8   30 1     
   21    8   31 1     
   22    9   18 ar    
   23    9   10 ar    
   24   10   11 ar    
   25   10   32 1     
   26   11   12 ar    
   27   11   33 1     
   28   12   17 ar    
   29   12   13 ar    
   30   13   14 ar    
   31   14   15 ar    
   32   14   34 1     
   33   15   16 ar    
   34   15   35 1     
   35   16   17 ar    
   36   16   36 1     
   37   17   18 ar    
   38   18   37 1     
   39   19   20 1     
   40   19   38 1     
   41   19   39 1     
   42   20   40 1     
   43   20   41 1     
@<TRIPOS>SUBSTRUCTURE
      1 ****           1
@<TRIPOS>SET
DONOR_HYDROGENS      STATIC     ATOMS    <user>   **** ""
1 7
ATOM$RED        STATIC     ATOMS    COLORGROUP SYSTEM
1 7
