#       Name:                5RD
#       Creating user name   gbret
#       Creation time:       Fri Sep  9 01:39:34 2016


#       File generated by GOLD software.
#

@<TRIPOS>MOLECULE
5RD
    35    35     1
SMALL
NO_CHARGES


@<TRIPOS>ATOM
      1 C1          -2.0215   4.4643  -3.2995 C.3            1 <1>                0.0000
      2 C2          -2.0007   2.9344  -3.3079 C.3            1 <1>                0.0000
      3 C3          -1.2607   2.4276  -2.0684 C.3            1 <1>                0.0000
      4 C4          -1.2400   0.8978  -2.0768 C.3            1 <1>                0.0000
      5 N5          -0.5295   0.4111  -0.8867 N.4            1 <1>                0.0000
      6 H6           0.4171   0.7604  -0.8938 H              1 <1>                0.0000
      7 H7          -1.0018   0.7365  -0.0565 H              1 <1>                0.0000
      8 C8          -0.5096  -1.0577  -0.8947 C.3            1 <1>                0.0000
      9 C9           0.2193  -1.5569   0.3262 C.ar           1 <1>                0.0000
     10 C10          1.5854  -1.7632   0.2794 C.ar           1 <1>                0.0000
     11 C11          2.2540  -2.2211   1.3993 C.ar           1 <1>                0.0000
     12 C12          1.5565  -2.4723   2.5661 C.ar           1 <1>                0.0000
     13 C13          0.1906  -2.2652   2.6131 C.ar           1 <1>                0.0000
     14 C14         -0.4773  -1.8032   1.4945 C.ar           1 <1>                0.0000
     15 S15          2.4086  -3.0571   3.9932 S.o2           1 <1>                0.0000
     16 N16          2.8884  -1.7280   4.8566 N.pl3          1 <1>                0.0000
     17 O17          1.4421  -3.7266   4.7913 O.2            1 <1>                0.0000
     18 O18          3.5960  -3.6810   3.5241 O.2            1 <1>                0.0000
     19 H19         -0.9989   4.8416  -3.3072 H              1 <1>                0.0000
     20 H20         -2.5487   4.8253  -4.1825 H              1 <1>                0.0000
     21 H21         -2.5317   4.8158  -2.4027 H              1 <1>                0.0000
     22 H22         -3.0233   2.5571  -3.3001 H              1 <1>                0.0000
     23 H23         -1.4905   2.5829  -4.2047 H              1 <1>                0.0000
     24 H24         -0.2381   2.8049  -2.0761 H              1 <1>                0.0000
     25 H25         -1.7709   2.7791  -1.1716 H              1 <1>                0.0000
     26 H26         -2.2626   0.5205  -2.0690 H              1 <1>                0.0000
     27 H27         -0.7298   0.5462  -2.9736 H              1 <1>                0.0000
     28 H28         -1.5322  -1.4350  -0.8870 H              1 <1>                0.0000
     29 H29          0.0006  -1.4092  -1.7915 H              1 <1>                0.0000
     30 H30          2.1303  -1.5669  -0.6322 H              1 <1>                0.0000
     31 H31          3.3211  -2.3829   1.3626 H              1 <1>                0.0000
     32 H32         -0.3543  -2.4618   3.5246 H              1 <1>                0.0000
     33 H33         -1.5445  -1.6414   1.5312 H              1 <1>                0.0000
     34 H34          2.6791  -0.8379   4.5329 H              1 <1>                0.0000
     35 H35          3.3788  -1.8395   5.6861 H              1 <1>                0.0000
@<TRIPOS>BOND
    1    1    2 1     
    2    1   19 1     
    3    1   20 1     
    4    1   21 1     
    5    2    3 1     
    6    2   22 1     
    7    2   23 1     
    8    3    4 1     
    9    3   24 1     
   10    3   25 1     
   11    4    5 1     
   12    4   26 1     
   13    4   27 1     
   14    5    6 1     
   15    5    7 1     
   16    5    8 1     
   17    8    9 1     
   18    8   28 1     
   19    8   29 1     
   20    9   14 ar    
   21    9   10 ar    
   22   10   11 ar    
   23   10   30 1     
   24   11   12 ar    
   25   11   31 1     
   26   12   13 ar    
   27   12   15 1     
   28   13   14 ar    
   29   13   32 1     
   30   14   33 1     
   31   15   16 1     
   32   15   17 2     
   33   15   18 2     
   34   16   34 1     
   35   16   35 1     
@<TRIPOS>SUBSTRUCTURE
      1 ****           1
@<TRIPOS>SET
DONOR_HYDROGENS      STATIC     ATOMS    <user>   **** ""
4 6 7 34 35
ATOM$RED        STATIC     ATOMS    COLORGROUP SYSTEM
4 6 7 34 35
