#       Name:                5RS
#       Creating user name   gbret
#       Creation time:       Fri Sep  9 01:40:18 2016


#       File generated by GOLD software.
#

@<TRIPOS>MOLECULE
5RS
   104   108     1
SMALL
NO_CHARGES


@<TRIPOS>ATOM
      1 C1           1.1443   7.6669   3.4952 C.3            1 <1>                0.0000
      2 C2           0.8935   6.2054   3.1184 C.3            1 <1>                0.0000
      3 C3           0.1127   6.1444   1.8041 C.3            1 <1>                0.0000
      4 C4           0.8016   5.4943   0.6026 C.3            1 <1>                0.0000
      5 C5          -0.3407   4.7674   1.3150 C.3            1 <1>                0.0000
      6 N6           0.0061   3.6082   2.1410 N.am           1 <1>                0.0000
      7 C7           0.5248   2.5038   1.5685 C.2            1 <1>                0.0000
      8 O8           0.7860   2.5003   0.3842 O.2            1 <1>                0.0000
      9 C9           0.7801   1.2732   2.4000 C.3            1 <1>                0.0000
     10 C10         -0.5499   0.7446   2.9773 C.3            1 <1>                0.0000
     11 C11         -0.9417  -0.3757   1.9779 C.3            1 <1>                0.0000
     12 C12          0.4443  -0.9585   1.6050 C.3            1 <1>                0.0000
     13 N13          1.3440   0.2085   1.5574 N.am           1 <1>                0.0000
     14 C14          2.4928   0.2865   0.8570 C.2            1 <1>                0.0000
     15 O15          3.1098   1.3300   0.8184 O.2            1 <1>                0.0000
     16 C16          3.0108  -0.9227   0.1219 C.3            1 <1>                0.0000
     17 N17          3.7217  -0.4931  -1.0849 N.am           1 <1>                0.0000
     18 C18          3.8321  -1.3298  -2.1357 C.2            1 <1>                0.0000
     19 O19          3.3421  -2.4404  -2.0822 O.2            1 <1>                0.0000
     20 O20          4.4855  -0.9350  -3.2448 O.3            1 <1>                0.0000
     21 C21          4.5653  -1.8881  -4.3373 C.3            1 <1>                0.0000
     22 C22          3.1534  -2.2532  -4.7999 C.3            1 <1>                0.0000
     23 C23          5.3385  -1.2657  -5.5016 C.3            1 <1>                0.0000
     24 C24          5.2883  -3.1499  -3.8615 C.3            1 <1>                0.0000
     25 C25          3.9679  -1.6994   1.0283 C.3            1 <1>                0.0000
     26 C26          3.2370  -2.1116   2.3077 C.3            1 <1>                0.0000
     27 C27          4.4609  -2.9497   0.2972 C.3            1 <1>                0.0000
     28 C28          5.1628  -0.8135   1.3865 C.3            1 <1>                0.0000
     29 O29         -1.7592  -1.3629   2.6098 O.3            1 <1>                0.0000
     30 C30         -2.6590  -2.0091   1.8281 C.ar           1 <1>                0.0000
     31 N31         -2.7411  -1.7149   0.5457 N.ar           1 <1>                0.0000
     32 C32         -3.6298  -2.3543  -0.2251 C.ar           1 <1>                0.0000
     33 C33         -3.7405  -2.0634  -1.5940 C.ar           1 <1>                0.0000
     34 C34         -4.6561  -2.7319  -2.3561 C.ar           1 <1>                0.0000
     35 O35         -4.7609  -2.4490  -3.6806 O.3            1 <1>                0.0000
     36 C36         -5.7365  -3.1809  -4.4252 C.3            1 <1>                0.0000
     37 C37         -5.4868  -3.7045  -1.7898 C.ar           1 <1>                0.0000
     38 C38         -5.4044  -4.0087  -0.4671 C.ar           1 <1>                0.0000
     39 C39         -4.4726  -3.3404   0.3470 C.ar           1 <1>                0.0000
     40 N40         -4.3725  -3.6215   1.6512 N.ar           1 <1>                0.0000
     41 C41         -3.4911  -2.9895   2.3895 C.ar           1 <1>                0.0000
     42 C42         -3.3815  -3.3091   3.8582 C.3            1 <1>                0.0000
     43 C43         -2.3669  -4.4363   4.0605 C.3            1 <1>                0.0000
     44 C44         -1.6651   4.6840   0.6007 C.2            1 <1>                0.0000
     45 O45         -1.9482   5.5014  -0.2493 O.2            1 <1>                0.0000
     46 N46         -2.5349   3.7010   0.9066 N.am           1 <1>                0.0000
     47 S47         -3.9346   3.5339   0.0375 S.o2           1 <1>                0.0000
     48 O48         -4.5971   2.4349   0.6479 O.2            1 <1>                0.0000
     49 O49         -4.5100   4.8331   0.0467 O.2            1 <1>                0.0000
     50 C50         -3.3805   3.0950  -1.6331 C.3            1 <1>                0.0000
     51 C51         -3.6798   1.6783  -2.1273 C.3            1 <1>                0.0000
     52 C52         -4.4560   2.8673  -2.6972 C.3            1 <1>                0.0000
     53 H53          1.7208   8.1515   2.7073 H              1 <1>                0.0000
     54 H54          0.1902   8.1800   3.6154 H              1 <1>                0.0000
     55 H55          1.7007   7.7103   4.4316 H              1 <1>                0.0000
     56 H56          1.8477   5.6922   2.9983 H              1 <1>                0.0000
     57 H57          0.3170   5.7208   3.9064 H              1 <1>                0.0000
     58 H58         -0.5472   6.9899   1.6096 H              1 <1>                0.0000
     59 H59          0.5952   5.9122  -0.3828 H              1 <1>                0.0000
     60 H60          1.8112   5.1101   0.7484 H              1 <1>                0.0000
     61 H61         -0.1376   3.6356   3.0999 H              1 <1>                0.0000
     62 H62          1.4703   1.5097   3.2098 H              1 <1>                0.0000
     63 H63         -0.4010   0.3352   3.9765 H              1 <1>                0.0000
     64 H64         -1.3044   1.5311   2.9902 H              1 <1>                0.0000
     65 H65         -1.4397   0.0391   1.1016 H              1 <1>                0.0000
     66 H66          0.7771  -1.6632   2.3671 H              1 <1>                0.0000
     67 H67          0.4017  -1.4446   0.6304 H              1 <1>                0.0000
     68 H68          2.1746  -1.5637  -0.1578 H              1 <1>                0.0000
     69 H69          4.1128   0.3935  -1.1277 H              1 <1>                0.0000
     70 H70          2.6383  -1.3543  -5.1388 H              1 <1>                0.0000
     71 H71          3.2133  -2.9687  -5.6200 H              1 <1>                0.0000
     72 H72          2.6025  -2.6966  -3.9704 H              1 <1>                0.0000
     73 H73          6.3445  -1.0057  -5.1720 H              1 <1>                0.0000
     74 H74          5.3985  -1.9812  -6.3217 H              1 <1>                0.0000
     75 H75          4.8235  -0.3669  -5.8406 H              1 <1>                0.0000
     76 H76          4.7374  -3.5933  -3.0320 H              1 <1>                0.0000
     77 H77          5.3482  -3.8654  -4.6816 H              1 <1>                0.0000
     78 H78          6.2942  -2.8898  -3.5319 H              1 <1>                0.0000
     79 H79          2.4295  -2.8002   2.0590 H              1 <1>                0.0000
     80 H80          3.9371  -2.6018   2.9842 H              1 <1>                0.0000
     81 H81          2.8237  -1.2265   2.7913 H              1 <1>                0.0000
     82 H82          4.9816  -2.6561  -0.6142 H              1 <1>                0.0000
     83 H83          5.1428  -3.5030   0.9430 H              1 <1>                0.0000
     84 H84          3.6096  -3.5808   0.0421 H              1 <1>                0.0000
     85 H85          4.8115   0.0772   1.9073 H              1 <1>                0.0000
     86 H86          5.8446  -1.3669   2.0323 H              1 <1>                0.0000
     87 H87          5.6835  -0.5199   0.4750 H              1 <1>                0.0000
     88 H88         -3.1048  -1.3143  -2.0425 H              1 <1>                0.0000
     89 H89         -5.7161  -2.8586  -5.4662 H              1 <1>                0.0000
     90 H90         -5.5116  -4.2461  -4.3701 H              1 <1>                0.0000
     91 H91         -6.7261  -2.9965  -4.0071 H              1 <1>                0.0000
     92 H92         -6.2036  -4.2205  -2.4114 H              1 <1>                0.0000
     93 H93         -6.0525  -4.7613  -0.0431 H              1 <1>                0.0000
     94 H94         -3.0521  -2.4222   4.3995 H              1 <1>                0.0000
     95 H95         -4.3546  -3.6243   4.2350 H              1 <1>                0.0000
     96 H96         -2.6963  -5.3232   3.5192 H              1 <1>                0.0000
     97 H97         -1.3938  -4.1212   3.6836 H              1 <1>                0.0000
     98 H98         -2.2876  -4.6675   5.1227 H              1 <1>                0.0000
     99 H99         -2.3411   3.0913   1.6357 H              1 <1>                0.0000
    100 H100        -2.4446   3.5529  -1.9534 H              1 <1>                0.0000
    101 H101        -2.9408   1.2038  -2.7729 H              1 <1>                0.0000
    102 H102        -4.2098   1.0100  -1.4486 H              1 <1>                0.0000
    103 H103        -5.4966   2.9812  -2.3934 H              1 <1>                0.0000
    104 H104        -4.2276   3.1750  -3.7176 H              1 <1>                0.0000
@<TRIPOS>BOND
    1    1    2 1     
    2    1   53 1     
    3    1   54 1     
    4    1   55 1     
    5    2    3 1     
    6    2   56 1     
    7    2   57 1     
    8    3    5 1     
    9    3    4 1     
   10    3   58 1     
   11    4    5 1     
   12    4   59 1     
   13    4   60 1     
   14    5    6 1     
   15    5   44 1     
   16    6    7 am    
   17    6   61 1     
   18    7    8 2     
   19    7    9 1     
   20    9   13 1     
   21    9   10 1     
   22    9   62 1     
   23   10   11 1     
   24   10   63 1     
   25   10   64 1     
   26   11   12 1     
   27   11   29 1     
   28   11   65 1     
   29   12   13 1     
   30   12   66 1     
   31   12   67 1     
   32   13   14 am    
   33   14   15 2     
   34   14   16 1     
   35   16   17 1     
   36   16   25 1     
   37   16   68 1     
   38   17   18 am    
   39   17   69 1     
   40   18   19 2     
   41   18   20 1     
   42   20   21 1     
   43   21   22 1     
   44   21   23 1     
   45   21   24 1     
   46   22   70 1     
   47   22   71 1     
   48   22   72 1     
   49   23   73 1     
   50   23   74 1     
   51   23   75 1     
   52   24   76 1     
   53   24   77 1     
   54   24   78 1     
   55   25   26 1     
   56   25   27 1     
   57   25   28 1     
   58   26   79 1     
   59   26   80 1     
   60   26   81 1     
   61   27   82 1     
   62   27   83 1     
   63   27   84 1     
   64   28   85 1     
   65   28   86 1     
   66   28   87 1     
   67   29   30 1     
   68   30   41 ar    
   69   30   31 ar    
   70   31   32 ar    
   71   32   39 ar    
   72   32   33 ar    
   73   33   34 ar    
   74   33   88 1     
   75   34   35 1     
   76   34   37 ar    
   77   35   36 1     
   78   36   89 1     
   79   36   90 1     
   80   36   91 1     
   81   37   38 ar    
   82   37   92 1     
   83   38   39 ar    
   84   38   93 1     
   85   39   40 ar    
   86   40   41 ar    
   87   41   42 1     
   88   42   43 1     
   89   42   94 1     
   90   42   95 1     
   91   43   96 1     
   92   43   97 1     
   93   43   98 1     
   94   44   45 2     
   95   44   46 am    
   96   46   47 1     
   97   46   99 1     
   98   47   48 2     
   99   47   49 2     
  100   47   50 1     
  101   50   52 1     
  102   50   51 1     
  103   50  100 1     
  104   51   52 1     
  105   51  101 1     
  106   51  102 1     
  107   52  103 1     
  108   52  104 1     
@<TRIPOS>SUBSTRUCTURE
      1 ****           1
@<TRIPOS>SET
DONOR_HYDROGENS      STATIC     ATOMS    <user>   **** ""
3 61 69 99
ATOM$RED        STATIC     ATOMS    COLORGROUP SYSTEM
3 61 69 99
