#       Name:                5RZ
#       Creating user name   gbret
#       Creation time:       Fri Sep  9 01:40:47 2016


#       File generated by GOLD software.
#

@<TRIPOS>MOLECULE
5RZ
    32    34     1
SMALL
NO_CHARGES


@<TRIPOS>ATOM
      1 N1           0.1886   6.9877   0.0393 N.pl3          1 <1>                0.0000
      2 C2           0.2072   5.6146   0.0317 C.2            1 <1>                0.0000
      3 N3          -0.9327   4.9605   0.0337 N.2            1 <1>                0.0000
      4 C4          -0.9624   3.6226   0.0261 C.2            1 <1>                0.0000
      5 N5          -1.9702   2.6908   0.0258 N.pl3          1 <1>                0.0000
      6 H6          -2.9225   2.8756   0.0316 H              1 <1>                0.0000
      7 C7          -1.3857   1.4526   0.0157 C.2            1 <1>                0.0000
      8 S8          -2.2540  -0.0806   0.0107 S.3            1 <1>                0.0000
      9 C9          -0.8579  -1.2325  -0.0026 C.3            1 <1>                0.0000
     10 C10         -1.3747  -2.6481  -0.0086 C.2            1 <1>                0.0000
     11 O11         -2.5691  -2.8575  -0.0043 O.2            1 <1>                0.0000
     12 C12         -0.4302  -3.7759  -0.0197 C.ar           1 <1>                0.0000
     13 C13          0.9483  -3.5381  -0.0189 C.ar           1 <1>                0.0000
     14 C14          1.8272  -4.5998  -0.0294 C.ar           1 <1>                0.0000
     15 C15          1.3484  -5.8997  -0.0411 C.ar           1 <1>                0.0000
     16 Br16         2.5625  -7.3494  -0.0554 Br             1 <1>                0.0000
     17 C17         -0.0153  -6.1428  -0.0419 C.ar           1 <1>                0.0000
     18 C18         -0.9063  -5.0912  -0.0252 C.ar           1 <1>                0.0000
     19 N19         -0.0828   1.5821   0.0099 N.2            1 <1>                0.0000
     20 C20          0.2362   2.9031   0.0159 C.2            1 <1>                0.0000
     21 C21          1.4549   3.6182   0.0140 C.2            1 <1>                0.0000
     22 O22          2.5238   3.0308   0.0048 O.2            1 <1>                0.0000
     23 N23          1.4073   4.9686   0.0168 N.am           1 <1>                0.0000
     24 H24          2.2311   5.4807   0.0152 H              1 <1>                0.0000
     25 H25          1.0219   7.4841   0.0341 H              1 <1>                0.0000
     26 H26         -0.6580   7.4613   0.0459 H              1 <1>                0.0000
     27 H27         -0.2548  -1.0621  -0.8945 H              1 <1>                0.0000
     28 H28         -0.2465  -1.0726   0.8854 H              1 <1>                0.0000
     29 H29          1.3230  -2.5252  -0.0105 H              1 <1>                0.0000
     30 H30          2.8918  -4.4178  -0.0288 H              1 <1>                0.0000
     31 H31         -0.3814  -7.1588  -0.0515 H              1 <1>                0.0000
     32 H32         -1.9692  -5.2823  -0.0255 H              1 <1>                0.0000
@<TRIPOS>BOND
    1    1    2 1     
    2    1   25 1     
    3    1   26 1     
    4    2   23 1     
    5    2    3 2     
    6    3    4 1     
    7    4   20 2     
    8    4    5 1     
    9    5    6 1     
   10    5    7 1     
   11    7    8 1     
   12    7   19 2     
   13    8    9 1     
   14    9   10 1     
   15    9   27 1     
   16    9   28 1     
   17   10   11 2     
   18   10   12 1     
   19   12   18 ar    
   20   12   13 ar    
   21   13   14 ar    
   22   13   29 1     
   23   14   15 ar    
   24   14   30 1     
   25   15   16 1     
   26   15   17 ar    
   27   17   18 ar    
   28   17   31 1     
   29   18   32 1     
   30   19   20 1     
   31   20   21 1     
   32   21   22 2     
   33   21   23 am    
   34   23   24 1     
@<TRIPOS>SUBSTRUCTURE
      1 ****           1
@<TRIPOS>SET
DONOR_HYDROGENS      STATIC     ATOMS    <user>   **** ""
4 25 26 6 24
ATOM$RED        STATIC     ATOMS    COLORGROUP SYSTEM
4 25 26 6 24
