#       Name:                5T0
#       Creating user name   gbret
#       Creation time:       Fri Sep  9 01:42:41 2016


#       File generated by GOLD software.
#

@<TRIPOS>MOLECULE
5T0
    56    58     1
SMALL
NO_CHARGES


@<TRIPOS>ATOM
      1 C1          -2.0452   8.8223  -0.8486 C.3            1 <1>                0.0000
      2 N2          -2.0253   7.3534  -0.8567 N.4            1 <1>                0.0000
      3 H3          -2.9719   7.0042  -0.8495 H              1 <1>                0.0000
      4 H4          -1.5530   7.0280  -1.6868 H              1 <1>                0.0000
      5 C5          -1.3148   6.8668   0.3334 C.3            1 <1>                0.0000
      6 C6          -1.2944   5.3600   0.3251 C.ar           1 <1>                0.0000
      7 C7          -2.3200   4.6528   0.9255 C.ar           1 <1>                0.0000
      8 C8          -2.3044   3.2719   0.9197 C.ar           1 <1>                0.0000
      9 C9          -1.2569   2.5933   0.3099 C.ar           1 <1>                0.0000
     10 C10         -0.2283   3.3067  -0.2922 C.ar           1 <1>                0.0000
     11 C11         -0.2530   4.6875  -0.2877 C.ar           1 <1>                0.0000
     12 N12         -1.2377   1.1967   0.3026 N.3            1 <1>                0.0000
     13 C13         -1.3243   0.6621   1.6676 C.3            1 <1>                0.0000
     14 C14         -1.4473  -0.8624   1.6129 C.3            1 <1>                0.0000
     15 C15         -0.2262  -1.4426   0.8940 C.3            1 <1>                0.0000
     16 C16         -0.3725  -2.9615   0.7824 C.3            1 <1>                0.0000
     17 C17          0.9018  -3.5535   0.1770 C.3            1 <1>                0.0000
     18 C18          0.7577  -5.0496   0.0670 C.2            1 <1>                0.0000
     19 O19         -0.2637  -5.5892   0.4365 O.2            1 <1>                0.0000
     20 N20          1.7638  -5.7879  -0.4419 N.am           1 <1>                0.0000
     21 C21          3.0564  -5.2649  -0.9207 C.3            1 <1>                0.0000
     22 C22          4.0354  -6.4597  -0.8041 C.3            1 <1>                0.0000
     23 C23          3.1227  -7.6501  -1.2009 C.3            1 <1>                0.0000
     24 C24          1.7566  -7.2489  -0.6057 C.3            1 <1>                0.0000
     25 C25         -0.1316  -0.8333  -0.5075 C.3            1 <1>                0.0000
     26 C26         -0.0468   0.6903  -0.3914 C.3            1 <1>                0.0000
     27 H27         -1.0227   9.1996  -0.8563 H              1 <1>                0.0000
     28 H28         -2.5724   9.1834  -1.7317 H              1 <1>                0.0000
     29 H29         -2.5554   9.1738   0.0482 H              1 <1>                0.0000
     30 H30         -0.2922   7.2441   0.3257 H              1 <1>                0.0000
     31 H31         -1.8250   7.2183   1.2302 H              1 <1>                0.0000
     32 H32         -3.1339   5.1811   1.3997 H              1 <1>                0.0000
     33 H33         -3.1055   2.7202   1.3890 H              1 <1>                0.0000
     34 H34          0.5878   2.7821  -0.7668 H              1 <1>                0.0000
     35 H35          0.5464   5.2428  -0.7557 H              1 <1>                0.0000
     36 H36         -0.4262   0.9343   2.2219 H              1 <1>                0.0000
     37 H37         -2.1991   1.0793   2.1663 H              1 <1>                0.0000
     38 H38         -1.4958  -1.2601   2.6266 H              1 <1>                0.0000
     39 H39         -2.3526  -1.1352   1.0706 H              1 <1>                0.0000
     40 H40          0.6758  -1.2040   1.4576 H              1 <1>                0.0000
     41 H41         -0.5344  -3.3848   1.7737 H              1 <1>                0.0000
     42 H42         -1.2227  -3.1986   0.1429 H              1 <1>                0.0000
     43 H43          1.0637  -3.1302  -0.8144 H              1 <1>                0.0000
     44 H44          1.7520  -3.3164   0.8165 H              1 <1>                0.0000
     45 H45          2.9739  -4.9419  -1.9585 H              1 <1>                0.0000
     46 H46          3.3884  -4.4395  -0.2909 H              1 <1>                0.0000
     47 H47          4.8656  -6.3542  -1.5024 H              1 <1>                0.0000
     48 H48          4.3981  -6.5693   0.2179 H              1 <1>                0.0000
     49 H49          3.0622  -7.7450  -2.2851 H              1 <1>                0.0000
     50 H50          3.4797  -8.5765  -0.7509 H              1 <1>                0.0000
     51 H51          1.6161  -7.7344   0.3600 H              1 <1>                0.0000
     52 H52          0.9564  -7.5366  -1.2875 H              1 <1>                0.0000
     53 H53          0.7599  -1.2102  -1.0088 H              1 <1>                0.0000
     54 H54         -1.0162  -1.1057  -1.0832 H              1 <1>                0.0000
     55 H55          0.0063   1.1281  -1.3882 H              1 <1>                0.0000
     56 H56          0.8454   0.9624   0.1726 H              1 <1>                0.0000
@<TRIPOS>BOND
    1    1    2 1     
    2    1   27 1     
    3    1   28 1     
    4    1   29 1     
    5    2    3 1     
    6    2    4 1     
    7    2    5 1     
    8    5    6 1     
    9    5   30 1     
   10    5   31 1     
   11    6   11 ar    
   12    6    7 ar    
   13    7    8 ar    
   14    7   32 1     
   15    8    9 ar    
   16    8   33 1     
   17    9   10 ar    
   18    9   12 1     
   19   10   11 ar    
   20   10   34 1     
   21   11   35 1     
   22   12   26 1     
   23   12   13 1     
   24   13   14 1     
   25   13   36 1     
   26   13   37 1     
   27   14   15 1     
   28   14   38 1     
   29   14   39 1     
   30   15   16 1     
   31   15   25 1     
   32   15   40 1     
   33   16   17 1     
   34   16   41 1     
   35   16   42 1     
   36   17   18 1     
   37   17   43 1     
   38   17   44 1     
   39   18   19 2     
   40   18   20 am    
   41   20   24 1     
   42   20   21 1     
   43   21   22 1     
   44   21   45 1     
   45   21   46 1     
   46   22   23 1     
   47   22   47 1     
   48   22   48 1     
   49   23   24 1     
   50   23   49 1     
   51   23   50 1     
   52   24   51 1     
   53   24   52 1     
   54   25   26 1     
   55   25   53 1     
   56   25   54 1     
   57   26   55 1     
   58   26   56 1     
@<TRIPOS>SUBSTRUCTURE
      1 ****           1
@<TRIPOS>SET
DONOR_HYDROGENS      STATIC     ATOMS    <user>   **** ""
2 3 4
ATOM$RED        STATIC     ATOMS    COLORGROUP SYSTEM
2 3 4
