#       Name:                5UM
#       Creating user name   gbret
#       Creation time:       Fri Sep  9 01:45:41 2016


#       File generated by GOLD software.
#

@<TRIPOS>MOLECULE
5UM
    31    32     1
SMALL
NO_CHARGES


@<TRIPOS>ATOM
      1 N1          -4.9548   2.3123   1.1177 N.pl3          1 <1>                0.0000
      2 S2          -4.9203   0.6567   1.1121 S.o2           1 <1>                0.0000
      3 O3          -5.4480   0.2402   2.3640 O.2            1 <1>                0.0000
      4 O4          -5.4645   0.2482  -0.1354 O.2            1 <1>                0.0000
      5 C5          -3.2268   0.1704   1.0994 C.ar           1 <1>                0.0000
      6 C6          -2.5701  -0.0106  -0.1041 C.ar           1 <1>                0.0000
      7 C7          -1.2424  -0.3918  -0.1187 C.ar           1 <1>                0.0000
      8 C8          -0.5660  -0.5931   1.0766 C.ar           1 <1>                0.0000
      9 N9           0.7801  -0.9792   1.0648 N.am           1 <1>                0.0000
     10 C10          1.5561  -0.6858   0.0026 C.2            1 <1>                0.0000
     11 O11          1.1179  -0.0016  -0.8979 O.2            1 <1>                0.0000
     12 C12          2.9681  -1.2079  -0.0662 C.3            1 <1>                0.0000
     13 C13          3.6147  -0.7406  -1.3447 C.2            1 <1>                0.0000
     14 C14          4.3052   0.3916  -1.4880 C.2            1 <1>                0.0000
     15 C15          4.8083   0.6111  -2.7588 C.2            1 <1>                0.0000
     16 C16          4.5262  -0.3428  -3.6475 C.2            1 <1>                0.0000
     17 S17          3.5806  -1.6083  -2.8743 S.3            1 <1>                0.0000
     18 C18         -1.2280  -0.4102   2.2856 C.ar           1 <1>                0.0000
     19 F19         -0.5737  -0.6049   3.4515 F              1 <1>                0.0000
     20 C20         -2.5560  -0.0238   2.2927 C.ar           1 <1>                0.0000
     21 H21         -4.1251   2.8148   1.1138 H              1 <1>                0.0000
     22 H22         -5.8048   2.7797   1.1208 H              1 <1>                0.0000
     23 H23         -3.0963   0.1461  -1.0341 H              1 <1>                0.0000
     24 H24         -0.7312  -0.5334  -1.0594 H              1 <1>                0.0000
     25 H25          1.1541  -1.4577   1.8212 H              1 <1>                0.0000
     26 H26          3.5357  -0.8338   0.7858 H              1 <1>                0.0000
     27 H27          2.9541  -2.2976  -0.0433 H              1 <1>                0.0000
     28 H28          4.4599   1.0847  -0.6743 H              1 <1>                0.0000
     29 H29          5.3851   1.4884  -3.0117 H              1 <1>                0.0000
     30 H30          4.8344  -0.3403  -4.6826 H              1 <1>                0.0000
     31 H31         -3.0715   0.1187   3.2309 H              1 <1>                0.0000
@<TRIPOS>BOND
    1    1    2 1     
    2    1   21 1     
    3    1   22 1     
    4    2    3 2     
    5    2    4 2     
    6    2    5 1     
    7    5   20 ar    
    8    5    6 ar    
    9    6    7 ar    
   10    6   23 1     
   11    7    8 ar    
   12    7   24 1     
   13    8    9 1     
   14    8   18 ar    
   15    9   10 am    
   16    9   25 1     
   17   10   11 2     
   18   10   12 1     
   19   12   13 1     
   20   12   26 1     
   21   12   27 1     
   22   13   17 1     
   23   13   14 2     
   24   14   15 1     
   25   14   28 1     
   26   15   16 2     
   27   15   29 1     
   28   16   17 1     
   29   16   30 1     
   30   18   19 1     
   31   18   20 ar    
   32   20   31 1     
@<TRIPOS>SUBSTRUCTURE
      1 ****           1
@<TRIPOS>SET
DONOR_HYDROGENS      STATIC     ATOMS    <user>   **** ""
3 21 22 25
ATOM$RED        STATIC     ATOMS    COLORGROUP SYSTEM
3 21 22 25
