#       Name:                5V1
#       Creating user name   gbret
#       Creation time:       Fri Sep  9 01:46:09 2016


#       File generated by GOLD software.
#

@<TRIPOS>MOLECULE
5V1
    32    33     1
SMALL
NO_CHARGES


@<TRIPOS>ATOM
      1 O1           4.9321  -1.1408  -1.7462 O.co2          1 <1>                0.0000
      2 C2           4.9155   0.0815  -1.7395 C.2            1 <1>                0.0000
      3 O3           5.9657   0.7071  -1.7461 O.co2          1 <1>                0.0000
      4 C4           3.6246   0.8036  -1.7294 C.ar           1 <1>                0.0000
      5 C5           3.5827   2.2024  -1.7274 C.ar           1 <1>                0.0000
      6 C6           2.3549   2.8354  -1.7179 C.ar           1 <1>                0.0000
      7 N7           1.2349   2.1405  -1.7103 N.ar           1 <1>                0.0000
      8 C8           1.2288   0.8227  -1.7118 C.ar           1 <1>                0.0000
      9 C9          -0.0856   0.0856  -1.7028 C.3            1 <1>                0.0000
     10 N10         -0.5614  -0.0502  -0.3196 N.4            1 <1>                0.0000
     11 H11          0.1172  -0.5660   0.2203 H              1 <1>                0.0000
     12 H12         -0.6867   0.8658   0.0845 H              1 <1>                0.0000
     13 C13         -1.8426  -0.7687  -0.3108 C.3            1 <1>                0.0000
     14 C14         -2.3307  -0.9081   1.1082 C.ar           1 <1>                0.0000
     15 C15         -1.9658  -2.0096   1.8595 C.ar           1 <1>                0.0000
     16 C16         -2.4135  -2.1374   3.1611 C.ar           1 <1>                0.0000
     17 C17         -3.2256  -1.1635   3.7115 C.ar           1 <1>                0.0000
     18 C18         -3.5897  -0.0616   2.9604 C.ar           1 <1>                0.0000
     19 C19         -3.1386   0.0683   1.6603 C.ar           1 <1>                0.0000
     20 C20          2.4111   0.1075  -1.7274 C.ar           1 <1>                0.0000
     21 H21          4.4964   2.7782  -1.7329 H              1 <1>                0.0000
     22 H22          2.3121   3.9145  -1.7163 H              1 <1>                0.0000
     23 H23         -0.8187   0.6429  -2.2860 H              1 <1>                0.0000
     24 H24          0.0497  -0.9039  -2.1393 H              1 <1>                0.0000
     25 H25         -2.5757  -0.2115  -0.8941 H              1 <1>                0.0000
     26 H26         -1.7073  -1.7583  -0.7473 H              1 <1>                0.0000
     27 H27         -1.3313  -2.7704   1.4295 H              1 <1>                0.0000
     28 H28         -2.1290  -2.9983   3.7479 H              1 <1>                0.0000
     29 H29         -3.5760  -1.2638   4.7282 H              1 <1>                0.0000
     30 H30         -4.2245   0.6990   3.3903 H              1 <1>                0.0000
     31 H31         -3.4231   0.9292   1.0735 H              1 <1>                0.0000
     32 H32          2.3986  -0.9725  -1.7286 H              1 <1>                0.0000
@<TRIPOS>BOND
    1    1    2 ar    
    2    2    3 ar    
    3    2    4 1     
    4    4   20 ar    
    5    4    5 ar    
    6    5    6 ar    
    7    5   21 1     
    8    6    7 ar    
    9    6   22 1     
   10    7    8 ar    
   11    8    9 1     
   12    8   20 ar    
   13    9   10 1     
   14    9   23 1     
   15    9   24 1     
   16   10   11 1     
   17   10   12 1     
   18   10   13 1     
   19   13   14 1     
   20   13   25 1     
   21   13   26 1     
   22   14   19 ar    
   23   14   15 ar    
   24   15   16 ar    
   25   15   27 1     
   26   16   17 ar    
   27   16   28 1     
   28   17   18 ar    
   29   17   29 1     
   30   18   19 ar    
   31   18   30 1     
   32   19   31 1     
   33   20   32 1     
@<TRIPOS>SUBSTRUCTURE
      1 ****           1
@<TRIPOS>SET
DONOR_HYDROGENS      STATIC     ATOMS    <user>   **** ""
2 11 12
ATOM$RED        STATIC     ATOMS    COLORGROUP SYSTEM
2 11 12
