#       Name:                5WQ
#       Creating user name   gbret
#       Creation time:       Fri Sep  9 01:48:38 2016


#       File generated by GOLD software.
#

@<TRIPOS>MOLECULE
5WQ
   123   126     1
SMALL
NO_CHARGES


@<TRIPOS>ATOM
      1 C1           0.5767   7.6760  -3.4814 C.3            1 <1>                0.0000
      2 C2           0.6773   6.1642  -3.6943 C.3            1 <1>                0.0000
      3 O3          -0.6327   5.6185  -3.8620 O.3            1 <1>                0.0000
      4 C4          -0.7214   4.2759  -4.0630 C.ar           1 <1>                0.0000
      5 C5          -0.6856   3.8085  -5.3805 C.ar           1 <1>                0.0000
      6 C6          -0.5751   4.8049  -6.5061 C.3            1 <1>                0.0000
      7 C7          -0.7340   2.4745  -5.6718 C.ar           1 <1>                0.0000
      8 O8          -0.7106   2.0717  -6.9678 O.3            1 <1>                0.0000
      9 C9          -0.7967   1.5327  -4.6189 C.ar           1 <1>                0.0000
     10 C10         -0.7326   0.1405  -4.8413 C.ar           1 <1>                0.0000
     11 O11         -0.5990  -0.3541  -6.1042 O.3            1 <1>                0.0000
     12 C12         -0.8063  -0.7351  -3.7886 C.ar           1 <1>                0.0000
     13 N13         -0.6039  -2.1220  -3.9394 N.am           1 <1>                0.0000
     14 C14         -1.6399  -2.9570  -3.7110 C.2            1 <1>                0.0000
     15 O15         -2.7583  -2.4930  -3.5429 O.2            1 <1>                0.0000
     16 C16         -1.4872  -4.4598  -3.6596 C.3            1 <1>                0.0000
     17 C17         -0.3700  -4.9372  -4.5817 C.3            1 <1>                0.0000
     18 C18         -1.2544  -4.9315  -2.2248 C.3            1 <1>                0.0000
     19 C19          0.0679  -4.4350  -1.6834 C.2            1 <1>                0.0000
     20 C20          0.2035  -4.2750  -0.3887 C.2            1 <1>                0.0000
     21 C21          1.4851  -3.7610   0.2339 C.3            1 <1>                0.0000
     22 C22          2.1098  -2.7193  -0.6942 C.3            1 <1>                0.0000
     23 C23          1.1645  -3.1400   1.5644 C.2            1 <1>                0.0000
     24 O24          0.0103  -2.8091   1.7700 O.2            1 <1>                0.0000
     25 C25          2.1661  -2.9402   2.6553 C.3            1 <1>                0.0000
     26 C26          3.6019  -2.9441   2.1503 C.3            1 <1>                0.0000
     27 C27          1.8627  -1.7001   3.4845 C.3            1 <1>                0.0000
     28 O28          2.5302  -1.8347   4.7460 O.3            1 <1>                0.0000
     29 C29          2.2712  -0.3872   2.8161 C.3            1 <1>                0.0000
     30 C30          1.3981  -0.1682   1.5734 C.3            1 <1>                0.0000
     31 C31          2.0481   0.7774   3.7781 C.3            1 <1>                0.0000
     32 O32          2.8112   0.5630   5.0016 O.3            1 <1>                0.0000
     33 C33          2.3073   1.0808   6.1328 C.2            1 <1>                0.0000
     34 C34          3.0408   0.8995   7.4367 C.3            1 <1>                0.0000
     35 O35          1.2655   1.6923   6.1057 O.2            1 <1>                0.0000
     36 C36          2.4386   2.1382   3.2208 C.3            1 <1>                0.0000
     37 C37          3.6810   2.1023   2.3513 C.3            1 <1>                0.0000
     38 C38          1.2647   2.8537   2.5786 C.3            1 <1>                0.0000
     39 O39          1.2462   4.2115   3.0490 O.3            1 <1>                0.0000
     40 C40          0.5243   4.3944   4.2686 C.3            1 <1>                0.0000
     41 C41          1.2919   2.8652   1.0773 C.2            1 <1>                0.0000
     42 C42          0.3303   3.5126   0.4264 C.2            1 <1>                0.0000
     43 O43          0.3124   3.5558  -0.9257 O.3            1 <1>                0.0000
     44 C44         -0.9186   3.8592  -1.5881 C.3            1 <1>                0.0000
     45 O45         -1.1781   5.2578  -1.5002 O.3            1 <1>                0.0000
     46 C46         -0.8455   3.4034  -3.0222 C.ar           1 <1>                0.0000
     47 C47         -0.9013   2.0142  -3.2894 C.ar           1 <1>                0.0000
     48 C48         -1.0674   1.0985  -2.2427 C.ar           1 <1>                0.0000
     49 C49         -1.0087  -0.2425  -2.4874 C.ar           1 <1>                0.0000
     50 C50         -1.1516  -1.1774  -1.3154 C.3            1 <1>                0.0000
     51 N51         -2.4989  -1.0455  -0.7452 N.3            1 <1>                0.0000
     52 N52         -2.6299  -1.8330   0.4701 N.3            1 <1>                0.0000
     53 C53         -2.9430  -0.9757   1.6221 C.3            1 <1>                0.0000
     54 C54         -3.0133  -1.8328   2.8878 C.3            1 <1>                0.0000
     55 N55         -4.0489  -2.8618   2.7256 N.4            1 <1>                0.0000
     56 H56         -4.9397  -2.4186   2.5579 H              1 <1>                0.0000
     57 C57         -4.1282  -3.6731   3.9476 C.3            1 <1>                0.0000
     58 C58         -3.7097  -3.7250   1.5866 C.3            1 <1>                0.0000
     59 C59         -3.6451  -2.8836   0.3101 C.3            1 <1>                0.0000
     60 H60          1.5759   8.0922  -3.3535 H              1 <1>                0.0000
     61 H61          0.1005   8.1341  -4.3483 H              1 <1>                0.0000
     62 H62         -0.0181   7.8787  -2.5908 H              1 <1>                0.0000
     63 H63          1.2721   5.9615  -4.5849 H              1 <1>                0.0000
     64 H64          1.1535   5.7061  -2.8273 H              1 <1>                0.0000
     65 H65          0.4764   4.9864  -6.7287 H              1 <1>                0.0000
     66 H66         -1.0709   4.4085  -7.3922 H              1 <1>                0.0000
     67 H67         -1.0508   5.7402  -6.2113 H              1 <1>                0.0000
     68 H68          0.1784   1.9169  -7.3156 H              1 <1>                0.0000
     69 H69          0.3187  -0.4695  -6.3863 H              1 <1>                0.0000
     70 H70          0.2882  -2.4569  -4.1993 H              1 <1>                0.0000
     71 H71         -2.4328  -4.9072  -4.0152 H              1 <1>                0.0000
     72 H72          0.5725  -4.4831  -4.2760 H              1 <1>                0.0000
     73 H73         -0.2872  -6.0224  -4.5205 H              1 <1>                0.0000
     74 H74         -0.5970  -4.6475  -5.6077 H              1 <1>                0.0000
     75 H75         -2.0571  -4.5568  -1.5820 H              1 <1>                0.0000
     76 H76         -1.2554  -6.0230  -2.1918 H              1 <1>                0.0000
     77 H77          0.8856  -4.2393  -2.3544 H              1 <1>                0.0000
     78 H78         -0.6258  -4.5264   0.2615 H              1 <1>                0.0000
     79 H79          2.1688  -4.5961   0.3686 H              1 <1>                0.0000
     80 H80          1.3781  -1.9412  -0.9119 H              1 <1>                0.0000
     81 H81          2.9790  -2.2752  -0.2092 H              1 <1>                0.0000
     82 H82          2.4177  -3.1987  -1.6235 H              1 <1>                0.0000
     83 H83          2.0688  -3.8086   3.3452 H              1 <1>                0.0000
     84 H84          3.7347  -2.1398   1.4267 H              1 <1>                0.0000
     85 H85          4.2823  -2.7947   2.9886 H              1 <1>                0.0000
     86 H86          3.8168  -3.9006   1.6739 H              1 <1>                0.0000
     87 H87          0.7837  -1.6644   3.6805 H              1 <1>                0.0000
     88 H88          2.2551  -2.6088   5.2559 H              1 <1>                0.0000
     89 H89          3.3158  -0.4345   2.5268 H              1 <1>                0.0000
     90 H90          0.3667   0.0062   1.8800 H              1 <1>                0.0000
     91 H91          1.7639   0.6969   1.0203 H              1 <1>                0.0000
     92 H92          1.4435  -1.0520   0.9371 H              1 <1>                0.0000
     93 H93          0.9845   0.7990   4.0505 H              1 <1>                0.0000
     94 H94          4.0320   1.3466   7.3612 H              1 <1>                0.0000
     95 H95          2.4833   1.3850   8.2378 H              1 <1>                0.0000
     96 H96          3.1376  -0.1641   7.6543 H              1 <1>                0.0000
     97 H97          2.7082   2.7596   4.1152 H              1 <1>                0.0000
     98 H98          3.5118   1.4388   1.5032 H              1 <1>                0.0000
     99 H99          3.8999   3.1067   1.9888 H              1 <1>                0.0000
    100 H100         4.5239   1.7356   2.9370 H              1 <1>                0.0000
    101 H101         0.3317   2.3782   2.9080 H              1 <1>                0.0000
    102 H102        -0.5279   4.1606   4.1065 H              1 <1>                0.0000
    103 H103         0.9299   3.7323   5.0337 H              1 <1>                0.0000
    104 H104         0.6202   5.4296   4.5959 H              1 <1>                0.0000
    105 H105         2.0453   2.3680   0.4971 H              1 <1>                0.0000
    106 H106        -0.4436   4.0059   0.9949 H              1 <1>                0.0000
    107 H107        -1.7279   3.3156  -1.0870 H              1 <1>                0.0000
    108 H108        -1.2545   5.5875  -0.5944 H              1 <1>                0.0000
    109 H109        -1.2434   1.4417  -1.2373 H              1 <1>                0.0000
    110 H110        -0.9969  -2.2037  -1.6484 H              1 <1>                0.0000
    111 H111        -0.4099  -0.9258  -0.5573 H              1 <1>                0.0000
    112 H112        -2.7263  -0.0773  -0.5749 H              1 <1>                0.0000
    113 H113        -2.1644  -0.2214   1.7364 H              1 <1>                0.0000
    114 H114        -3.9033  -0.4859   1.4606 H              1 <1>                0.0000
    115 H115        -2.0487  -2.3115   3.0565 H              1 <1>                0.0000
    116 H116        -3.2595  -1.2010   3.7412 H              1 <1>                0.0000
    117 H117        -4.4635  -3.0497   4.7765 H              1 <1>                0.0000
    118 H118        -4.8357  -4.4886   3.7970 H              1 <1>                0.0000
    119 H119        -3.1445  -4.0831   4.1761 H              1 <1>                0.0000
    120 H120        -2.7415  -4.1941   1.7619 H              1 <1>                0.0000
    121 H121        -4.4721  -4.4960   1.4754 H              1 <1>                0.0000
    122 H122        -4.6170  -2.4253   0.1270 H              1 <1>                0.0000
    123 H123        -3.3788  -3.5214  -0.5328 H              1 <1>                0.0000
@<TRIPOS>BOND
    1    1    2 1     
    2    1   60 1     
    3    1   61 1     
    4    1   62 1     
    5    2    3 1     
    6    2   63 1     
    7    2   64 1     
    8    3    4 1     
    9    4   46 ar    
   10    4    5 ar    
   11    5    6 1     
   12    5    7 ar    
   13    6   65 1     
   14    6   66 1     
   15    6   67 1     
   16    7    8 1     
   17    7    9 ar    
   18    8   68 1     
   19    9   47 ar    
   20    9   10 ar    
   21   10   11 1     
   22   10   12 ar    
   23   11   69 1     
   24   12   49 ar    
   25   12   13 1     
   26   13   14 am    
   27   13   70 1     
   28   14   15 2     
   29   14   16 1     
   30   16   17 1     
   31   16   18 1     
   32   16   71 1     
   33   17   72 1     
   34   17   73 1     
   35   17   74 1     
   36   18   19 1     
   37   18   75 1     
   38   18   76 1     
   39   19   20 2     
   40   19   77 1     
   41   20   21 1     
   42   20   78 1     
   43   21   22 1     
   44   21   23 1     
   45   21   79 1     
   46   22   80 1     
   47   22   81 1     
   48   22   82 1     
   49   23   24 2     
   50   23   25 1     
   51   25   26 1     
   52   25   27 1     
   53   25   83 1     
   54   26   84 1     
   55   26   85 1     
   56   26   86 1     
   57   27   28 1     
   58   27   29 1     
   59   27   87 1     
   60   28   88 1     
   61   29   30 1     
   62   29   31 1     
   63   29   89 1     
   64   30   90 1     
   65   30   91 1     
   66   30   92 1     
   67   31   32 1     
   68   31   36 1     
   69   31   93 1     
   70   32   33 1     
   71   33   34 1     
   72   33   35 2     
   73   34   94 1     
   74   34   95 1     
   75   34   96 1     
   76   36   37 1     
   77   36   38 1     
   78   36   97 1     
   79   37   98 1     
   80   37   99 1     
   81   37  100 1     
   82   38   39 1     
   83   38   41 1     
   84   38  101 1     
   85   39   40 1     
   86   40  102 1     
   87   40  103 1     
   88   40  104 1     
   89   41   42 2     
   90   41  105 1     
   91   42   43 1     
   92   42  106 1     
   93   43   44 1     
   94   44   45 1     
   95   44   46 1     
   96   44  107 1     
   97   45  108 1     
   98   46   47 ar    
   99   47   48 ar    
  100   48   49 ar    
  101   48  109 1     
  102   49   50 1     
  103   50   51 1     
  104   50  110 1     
  105   50  111 1     
  106   51   52 1     
  107   51  112 1     
  108   52   59 1     
  109   52   53 1     
  110   53   54 1     
  111   53  113 1     
  112   53  114 1     
  113   54   55 1     
  114   54  115 1     
  115   54  116 1     
  116   55   56 1     
  117   55   57 1     
  118   55   58 1     
  119   57  117 1     
  120   57  118 1     
  121   57  119 1     
  122   58   59 1     
  123   58  120 1     
  124   58  121 1     
  125   59  122 1     
  126   59  123 1     
@<TRIPOS>SUBSTRUCTURE
      1 ****           1
@<TRIPOS>SET
DONOR_HYDROGENS      STATIC     ATOMS    <user>   **** ""
7 68 69 70 88 108 112 56
ATOM$RED        STATIC     ATOMS    COLORGROUP SYSTEM
7 68 69 70 88 108 112 56
