#       Name:                5XJ
#       Creating user name   gbret
#       Creation time:       Fri Sep  9 01:50:10 2016


#       File generated by GOLD software.
#

@<TRIPOS>MOLECULE
5XJ
    47    50     1
SMALL
NO_CHARGES


@<TRIPOS>ATOM
      1 C1          -2.7362   1.5125   4.4794 C.3            1 <1>                0.0000
      2 N2          -1.9147   0.3050   4.5949 N.pl3          1 <1>                0.0000
      3 C3          -0.4864   0.4174   4.9010 C.3            1 <1>                0.0000
      4 S4          -2.6005  -1.1868   4.3795 S.o2           1 <1>                0.0000
      5 O5          -1.7707  -2.1130   5.0671 O.2            1 <1>                0.0000
      6 O6          -3.9868  -1.0342   4.6518 O.2            1 <1>                0.0000
      7 N7          -2.4780  -1.5548   2.7695 N.pl3          1 <1>                0.0000
      8 C8          -1.2182  -1.6423   2.1655 C.ar           1 <1>                0.0000
      9 C9          -0.1406  -2.1540   2.8766 C.ar           1 <1>                0.0000
     10 C10          1.1041  -2.2411   2.2816 C.ar           1 <1>                0.0000
     11 C11          1.2811  -1.8192   0.9764 C.ar           1 <1>                0.0000
     12 F12          2.4990  -1.9063   0.3981 F              1 <1>                0.0000
     13 C13          0.2064  -1.3058   0.2587 C.ar           1 <1>                0.0000
     14 N14          0.3856  -0.8785  -1.0630 N.pl3          1 <1>                0.0000
     15 C15          0.0953   0.4312  -1.4137 C.ar           1 <1>                0.0000
     16 N16         -0.4513   1.2449  -0.5239 N.ar           1 <1>                0.0000
     17 C17         -0.7433   2.4976  -0.8159 C.ar           1 <1>                0.0000
     18 C18         -0.4892   3.0174  -2.0717 C.ar           1 <1>                0.0000
     19 C19          0.0818   2.2094  -3.0409 C.ar           1 <1>                0.0000
     20 C20          0.3879   0.8880  -2.7078 C.ar           1 <1>                0.0000
     21 C21          0.9992  -0.0179  -3.7059 C.ar           1 <1>                0.0000
     22 N22          0.4955  -1.2336  -3.9231 N.ar           1 <1>                0.0000
     23 C23          1.0355  -2.0459  -4.8110 C.ar           1 <1>                0.0000
     24 N24          2.0882  -1.7145  -5.5270 N.ar           1 <1>                0.0000
     25 C25          2.6621  -0.5182  -5.3795 C.ar           1 <1>                0.0000
     26 N26          3.7164   0.0998  -5.9449 N.2            1 <1>                0.0000
     27 C27          3.8559   1.2907  -5.4325 C.2            1 <1>                0.0000
     28 N28          2.8979   1.5132  -4.5035 N.pl3          1 <1>                0.0000
     29 H29          2.7821   2.3204  -3.9781 H              1 <1>                0.0000
     30 C30          2.1146   0.3826  -4.4472 C.ar           1 <1>                0.0000
     31 C31         -1.0463  -1.2227   0.8526 C.ar           1 <1>                0.0000
     32 F32         -2.0929  -0.7246   0.1586 F              1 <1>                0.0000
     33 H33         -2.1158   2.3920   4.6519 H              1 <1>                0.0000
     34 H34         -3.1689   1.5634   3.4802 H              1 <1>                0.0000
     35 H35         -3.5352   1.4806   5.2201 H              1 <1>                0.0000
     36 H36         -0.3437   0.3974   5.9814 H              1 <1>                0.0000
     37 H37          0.0489  -0.4173   4.4483 H              1 <1>                0.0000
     38 H38         -0.1018   1.3555   4.5010 H              1 <1>                0.0000
     39 H39         -3.2791  -1.7097   2.2451 H              1 <1>                0.0000
     40 H40         -0.2753  -2.4841   3.8961 H              1 <1>                0.0000
     41 H41          1.9402  -2.6392   2.8373 H              1 <1>                0.0000
     42 H42          0.7128  -1.4989  -1.7331 H              1 <1>                0.0000
     43 H43         -1.1889   3.1283  -0.0609 H              1 <1>                0.0000
     44 H44         -0.7345   4.0451  -2.2952 H              1 <1>                0.0000
     45 H45          0.2892   2.5931  -4.0289 H              1 <1>                0.0000
     46 H46          0.5962  -3.0218  -4.9558 H              1 <1>                0.0000
     47 H47          4.6247   1.9969  -5.7095 H              1 <1>                0.0000
@<TRIPOS>BOND
    1    1    2 1     
    2    1   33 1     
    3    1   34 1     
    4    1   35 1     
    5    2    3 1     
    6    2    4 1     
    7    3   36 1     
    8    3   37 1     
    9    3   38 1     
   10    4    5 2     
   11    4    6 2     
   12    4    7 1     
   13    7    8 1     
   14    7   39 1     
   15    8   31 ar    
   16    8    9 ar    
   17    9   10 ar    
   18    9   40 1     
   19   10   11 ar    
   20   10   41 1     
   21   11   12 1     
   22   11   13 ar    
   23   13   14 1     
   24   13   31 ar    
   25   14   15 1     
   26   14   42 1     
   27   15   20 ar    
   28   15   16 ar    
   29   16   17 ar    
   30   17   18 ar    
   31   17   43 1     
   32   18   19 ar    
   33   18   44 1     
   34   19   20 ar    
   35   19   45 1     
   36   20   21 1     
   37   21   30 ar    
   38   21   22 ar    
   39   22   23 ar    
   40   23   24 ar    
   41   23   46 1     
   42   24   25 ar    
   43   25   30 ar    
   44   25   26 1     
   45   26   27 2     
   46   27   28 1     
   47   27   47 1     
   48   28   29 1     
   49   28   30 1     
   50   31   32 1     
@<TRIPOS>SUBSTRUCTURE
      1 ****           1
@<TRIPOS>SET
DONOR_HYDROGENS      STATIC     ATOMS    <user>   **** ""
3 39 42 29
ATOM$RED        STATIC     ATOMS    COLORGROUP SYSTEM
3 39 42 29
