#	Name:			60D
#	Creating user name:	drognan
#	Creation time:		Wed Sep  5 12:09:46 2018


#	Modifying user name:	drognan
#	Modification time:	Wed Sep  5 12:09:46 2018

@<TRIPOS>MOLECULE
60D
  39   44    0    0    0
SMALL
NO_CHARGES


@<TRIPOS>ATOM
   1 C1            -0.0062     1.5051     0.0285 C.3     
   2 C2             0.0115    -0.0247     0.0138 C.3     
   3 C3             0.7514    -0.5381     1.2506 C.3     
   4 N4            -1.3639    -0.5291     0.0231 N.pl3   
   5 C5            -2.2745    -0.2768     0.9974 C.2     
   6 C6            -3.4531    -0.8938     0.6994 C.2     
   7 C7            -3.2463    -1.5925    -0.5818 C.ar    
   8 C8            -1.9157    -1.3194    -0.9562 C.ar    
   9 C9            -1.4441    -1.8639    -2.1460 C.ar    
  10 C10           -2.2977    -2.6466    -2.9076 C.ar    
  11 N11           -3.5455    -2.8810    -2.5217 N.ar    
  12 C12           -4.0376    -2.3833    -1.4042 C.ar    
  13 N13           -1.8367    -3.1978    -4.1020 N.pl3   
  14 C14           -2.6413    -4.0708    -4.8190 C.ar    
  15 C15           -2.1503    -4.7136    -5.9582 C.ar    
  16 C16           -2.9867    -5.5755    -6.6414 C.ar    
  17 N17           -4.2207    -5.7666    -6.2004 N.ar    
  18 C18           -4.6610    -5.1432    -5.1157 C.ar    
  19 N19           -3.8880    -4.3123    -4.4293 N.ar    
  20 C20           -6.0490    -5.3854    -4.6562 C.2     
  21 C21           -6.6693    -4.8011    -3.5332 C.2     
  22 N22           -7.8889    -5.2625    -3.4588 N.2     
  23 N23           -8.0949    -6.1512    -4.5207 N.pl3   
  24 C24           -6.9631    -6.2110    -5.2469 C.2     
  25 S25           -9.4934    -6.9809    -4.8339 S.o2    
  26 O26           -9.0647    -8.1353    -5.5430 O.2     
  27 O27          -10.1259    -7.0926    -3.5664 O.2     
  28 C28          -10.4388    -5.8799    -5.9223 C.3     
  29 C29          -10.6299    -6.3171    -7.3760 C.3     
  30 C30          -11.8083    -6.3656    -6.4014 C.3     
  31 C31           -4.6862    -0.8674     1.4977 C.2     
  32 O32           -5.6730    -1.4663     1.1130 O.2     
  33 N33           -4.7243    -0.1798     2.6563 N.am    
  34 C34           -5.9539    -0.1534     3.4524 C.3     
  35 C35           -6.0007    -1.3838     4.3636 C.3     
  36 C36           -7.2486    -1.3075     5.2472 C.3     
  37 O37           -7.2227    -0.0944     6.0021 O.3     
  38 C38           -7.2259     1.0903     5.2030 C.3     
  39 C39           -5.9771     1.1103     4.3176 C.3     
@<TRIPOS>BOND
   1    1    2 1
   2    2    3 1
   3    2    4 1
   4    4    8 1
   5    4    5 1
   6    5    6 2
   7    6    7 1
   8    6   31 1
   9    7   12 ar
  10    7    8 ar
  11    8    9 ar
  12    9   10 ar
  13   10   11 ar
  14   10   13 1
  15   11   12 ar
  16   13   14 1
  17   14   19 ar
  18   14   15 ar
  19   15   16 ar
  20   16   17 ar
  21   17   18 ar
  22   18   19 ar
  23   18   20 1
  24   20   24 2
  25   20   21 1
  26   21   22 2
  27   22   23 1
  28   23   24 1
  29   23   25 1
  30   25   26 2
  31   25   27 2
  32   25   28 1
  33   28   30 1
  34   28   29 1
  35   29   30 1
  36   31   32 2
  37   31   33 am
  38   33   34 1
  39   34   39 1
  40   34   35 1
  41   35   36 1
  42   36   37 1
  43   37   38 1
  44   38   39 1





