#       Name:                612
#       Creating user name   gbret
#       Creation time:       Fri Sep  9 01:54:20 2016


#       File generated by GOLD software.
#

@<TRIPOS>MOLECULE
612
    48    49     1
SMALL
NO_CHARGES


@<TRIPOS>ATOM
      1 C1          -1.9923   4.5170   1.3920 C.3            1 <1>                0.0000
      2 C2          -1.1751   3.2501   1.1315 C.3            1 <1>                0.0000
      3 O3          -0.2019   3.5111   0.1181 O.3            1 <1>                0.0000
      4 C4           0.5547   2.3628  -0.2706 C.3            1 <1>                0.0000
      5 N5          -0.2863   1.4736  -1.0758 N.am           1 <1>                0.0000
      6 C6          -0.7734   0.3107  -0.5271 C.2            1 <1>                0.0000
      7 S7          -0.3908  -0.1147   1.1394 S.3            1 <1>                0.0000
      8 C8           1.1642  -1.0062   0.8872 C.3            1 <1>                0.0000
      9 C9           2.2480  -0.0241   0.4382 C.3            1 <1>                0.0000
     10 C10          3.5624  -0.7776   0.2250 C.3            1 <1>                0.0000
     11 C11          3.9877  -1.4421   1.5359 C.3            1 <1>                0.0000
     12 C12          2.9039  -2.4242   1.9850 C.3            1 <1>                0.0000
     13 C13          1.5895  -1.6706   2.1982 C.3            1 <1>                0.0000
     14 C14         -1.5584  -0.5130  -1.2874 C.2            1 <1>                0.0000
     15 C15         -2.1058  -1.7932  -0.7108 C.3            1 <1>                0.0000
     16 C16         -3.6348  -1.7590  -0.7535 C.3            1 <1>                0.0000
     17 C17         -1.5991  -2.9803  -1.5325 C.3            1 <1>                0.0000
     18 C18         -1.8467  -0.1484  -2.6109 C.2            1 <1>                0.0000
     19 O19         -2.5444  -0.8666  -3.3067 O.2            1 <1>                0.0000
     20 N20         -1.3487   1.0004  -3.1088 N.am           1 <1>                0.0000
     21 H21         -1.5476   1.2538  -4.0238 H              1 <1>                0.0000
     22 C22         -0.5826   1.8019  -2.3468 C.2            1 <1>                0.0000
     23 O23         -0.1436   2.8339  -2.8165 O.2            1 <1>                0.0000
     24 H24         -1.3436   5.2893   1.8055 H              1 <1>                0.0000
     25 H25         -2.4252   4.8692   0.4557 H              1 <1>                0.0000
     26 H26         -2.7904   4.2953   2.1005 H              1 <1>                0.0000
     27 H27         -0.6715   2.9474   2.0495 H              1 <1>                0.0000
     28 H28         -1.8387   2.4512   0.8007 H              1 <1>                0.0000
     29 H29          1.4171   2.6778  -0.8581 H              1 <1>                0.0000
     30 H30          0.8951   1.8336   0.6194 H              1 <1>                0.0000
     31 H31          1.0254  -1.7693   0.1214 H              1 <1>                0.0000
     32 H32          1.9450   0.4493  -0.4957 H              1 <1>                0.0000
     33 H33          2.3867   0.7390   1.2040 H              1 <1>                0.0000
     34 H34          3.4236  -1.5407  -0.5408 H              1 <1>                0.0000
     35 H35          4.3345  -0.0779  -0.0949 H              1 <1>                0.0000
     36 H36          4.9241  -1.9789   1.3840 H              1 <1>                0.0000
     37 H37          4.1265  -0.6790   2.3018 H              1 <1>                0.0000
     38 H38          2.7651  -3.1873   1.2191 H              1 <1>                0.0000
     39 H39          3.2069  -2.8976   2.9189 H              1 <1>                0.0000
     40 H40          1.7282  -0.9075   2.9640 H              1 <1>                0.0000
     41 H41          0.8173  -2.3703   2.5181 H              1 <1>                0.0000
     42 H42         -1.7734  -1.8980   0.3219 H              1 <1>                0.0000
     43 H43         -3.9672  -1.6543  -1.7863 H              1 <1>                0.0000
     44 H44         -4.0307  -2.6850  -0.3365 H              1 <1>                0.0000
     45 H45         -3.9958  -0.9134  -0.1681 H              1 <1>                0.0000
     46 H46         -1.9315  -2.8755  -2.5653 H              1 <1>                0.0000
     47 H47         -0.5098  -3.0046  -1.5021 H              1 <1>                0.0000
     48 H48         -1.9950  -3.9062  -1.1155 H              1 <1>                0.0000
@<TRIPOS>BOND
    1    1    2 1     
    2    1   24 1     
    3    1   25 1     
    4    1   26 1     
    5    2    3 1     
    6    2   27 1     
    7    2   28 1     
    8    3    4 1     
    9    4    5 1     
   10    4   29 1     
   11    4   30 1     
   12    5   22 1     
   13    5    6 1     
   14    6    7 1     
   15    6   14 2     
   16    7    8 1     
   17    8   13 1     
   18    8    9 1     
   19    8   31 1     
   20    9   10 1     
   21    9   32 1     
   22    9   33 1     
   23   10   11 1     
   24   10   34 1     
   25   10   35 1     
   26   11   12 1     
   27   11   36 1     
   28   11   37 1     
   29   12   13 1     
   30   12   38 1     
   31   12   39 1     
   32   13   40 1     
   33   13   41 1     
   34   14   15 1     
   35   14   18 1     
   36   15   16 1     
   37   15   17 1     
   38   15   42 1     
   39   16   43 1     
   40   16   44 1     
   41   16   45 1     
   42   17   46 1     
   43   17   47 1     
   44   17   48 1     
   45   18   19 2     
   46   18   20 1     
   47   20   21 1     
   48   20   22 1     
   49   22   23 2     
@<TRIPOS>SUBSTRUCTURE
      1 ****           1
@<TRIPOS>SET
DONOR_HYDROGENS      STATIC     ATOMS    <user>   **** ""
1 21
ATOM$RED        STATIC     ATOMS    COLORGROUP SYSTEM
1 21
