#       Name:                620
#       Creating user name   gbret
#       Creation time:       Fri Sep  9 01:55:56 2016


#       File generated by GOLD software.
#

@<TRIPOS>MOLECULE
620
    38    40     1
SMALL
NO_CHARGES


@<TRIPOS>ATOM
      1 N1          -5.7788   1.5181  -1.5924 N.pl3          1 <1>                0.0000
      2 C2          -5.7600   0.1344  -1.6000 C.2            1 <1>                0.0000
      3 N3          -6.8070  -0.6608  -1.6000 N.2            1 <1>                0.0000
      4 N4          -6.4378  -1.8908  -1.6087 N.2            1 <1>                0.0000
      5 N5          -5.1513  -1.9719  -1.6147 N.2            1 <1>                0.0000
      6 N6          -4.6607  -0.6544  -1.6147 N.pl3          1 <1>                0.0000
      7 N7          -3.3541  -0.2559  -1.6204 N.3            1 <1>                0.0000
      8 C8          -2.4506  -1.4142  -1.6264 C.3            1 <1>                0.0000
      9 C9          -1.0214  -0.9363  -1.6326 C.ar           1 <1>                0.0000
     10 C10         -0.3738  -0.7101  -2.8334 C.ar           1 <1>                0.0000
     11 C11          0.9371  -0.2713  -2.8424 C.ar           1 <1>                0.0000
     12 C12          1.6036  -0.0577  -1.6511 C.ar           1 <1>                0.0000
     13 C13          0.9562  -0.2839  -0.4454 C.ar           1 <1>                0.0000
     14 O14          1.6096  -0.0745   0.7277 O.3            1 <1>                0.0000
     15 C15          2.9623   0.3789   0.6450 C.3            1 <1>                0.0000
     16 C16          3.5191   0.5542   2.0343 C.ar           1 <1>                0.0000
     17 C17          3.3896   1.7682   2.6827 C.ar           1 <1>                0.0000
     18 C18          3.9004   1.9291   3.9571 C.ar           1 <1>                0.0000
     19 C19          4.5404   0.8759   4.5833 C.ar           1 <1>                0.0000
     20 C20          4.6691  -0.3384   3.9352 C.ar           1 <1>                0.0000
     21 C21          4.1545  -0.5005   2.6625 C.ar           1 <1>                0.0000
     22 C22         -0.3612  -0.7193  -0.4390 C.ar           1 <1>                0.0000
     23 H23         -4.9454   2.0144  -1.5977 H              1 <1>                0.0000
     24 H24         -6.6253   1.9916  -1.5858 H              1 <1>                0.0000
     25 H25         -3.1655   0.3539  -2.4018 H              1 <1>                0.0000
     26 H26         -2.6280  -2.0180  -0.7364 H              1 <1>                0.0000
     27 H27         -2.6365  -2.0154  -2.5164 H              1 <1>                0.0000
     28 H28         -0.8929  -0.8768  -3.7656 H              1 <1>                0.0000
     29 H29          1.4409  -0.0956  -3.7815 H              1 <1>                0.0000
     30 H30          2.6278   0.2848  -1.6587 H              1 <1>                0.0000
     31 H31          3.5592  -0.3556   0.1043 H              1 <1>                0.0000
     32 H32          2.9943   1.3323   0.1177 H              1 <1>                0.0000
     33 H33          2.8897   2.5911   2.1935 H              1 <1>                0.0000
     34 H34          3.7999   2.8777   4.4634 H              1 <1>                0.0000
     35 H35          4.9401   1.0018   5.5786 H              1 <1>                0.0000
     36 H36          5.1694  -1.1611   4.4243 H              1 <1>                0.0000
     37 H37          4.2551  -1.4492   2.1562 H              1 <1>                0.0000
     38 H38         -0.8675  -0.8958   0.4985 H              1 <1>                0.0000
@<TRIPOS>BOND
    1    1    2 1     
    2    1   23 1     
    3    1   24 1     
    4    2    6 1     
    5    2    3 2     
    6    3    4 1     
    7    4    5 2     
    8    5    6 1     
    9    6    7 1     
   10    7    8 1     
   11    7   25 1     
   12    8    9 1     
   13    8   26 1     
   14    8   27 1     
   15    9   22 ar    
   16    9   10 ar    
   17   10   11 ar    
   18   10   28 1     
   19   11   12 ar    
   20   11   29 1     
   21   12   13 ar    
   22   12   30 1     
   23   13   14 1     
   24   13   22 ar    
   25   14   15 1     
   26   15   16 1     
   27   15   31 1     
   28   15   32 1     
   29   16   21 ar    
   30   16   17 ar    
   31   17   18 ar    
   32   17   33 1     
   33   18   19 ar    
   34   18   34 1     
   35   19   20 ar    
   36   19   35 1     
   37   20   21 ar    
   38   20   36 1     
   39   21   37 1     
   40   22   38 1     
@<TRIPOS>SUBSTRUCTURE
      1 ****           1
@<TRIPOS>SET
DONOR_HYDROGENS      STATIC     ATOMS    <user>   **** ""
3 23 24 25
ATOM$RED        STATIC     ATOMS    COLORGROUP SYSTEM
3 23 24 25
