#	Name:			63D
#	Creating user name:	drognan
#	Creation time:		Wed Sep  5 12:09:46 2018


#	Modifying user name:	drognan
#	Modification time:	Wed Sep  5 12:09:46 2018

@<TRIPOS>MOLECULE
63D
  34   35    0    0    0
SMALL
NO_CHARGES


@<TRIPOS>ATOM
   1 C1            -0.0187     1.5258     0.0104 C.3     
   2 C2             0.0021    -0.0041     0.0020 C.3     
   3 C3             0.7182    -0.4975    -1.2568 C.3     
   4 C4             0.7390    -2.0273    -1.2652 C.3     
   5 C5             1.4551    -2.5207    -2.5240 C.3     
   6 C6             1.4758    -4.0506    -2.5324 C.3     
   7 C7             2.1920    -4.5440    -3.7912 C.3     
   8 C8             2.2127    -6.0738    -3.7996 C.3     
   9 C9             2.9289    -6.5673    -5.0584 C.3     
  10 C10            2.9496    -8.0971    -5.0668 C.3     
  11 O11            3.6185    -8.5579    -6.2426 O.3     
  12 C12            3.7243    -9.9030    -6.4050 C.ar    
  13 C13            4.3669   -10.4193    -7.5216 C.ar    
  14 C14            4.4748   -11.7866    -7.6873 C.ar    
  15 C15            3.9430   -12.6436    -6.7425 C.ar    
  16 C16            3.2996   -12.1324    -5.6246 C.ar    
  17 C17            3.1955   -10.7604    -5.4529 C.ar    
  18 O18            2.7768   -12.9756    -4.6958 O.3     
  19 C19            5.1731   -12.3445    -8.9007 C.3     
  20 O20            6.5637   -12.5096    -8.6161 O.3     
  21 C21            7.3411   -13.0059    -9.6106 C.ar    
  22 C22            6.7819   -13.3235   -10.8389 C.ar    
  23 C23            7.5753   -13.8296   -11.8510 C.ar    
  24 C24            8.9336   -14.0235   -11.6471 C.ar    
  25 C25            9.5052   -13.7129   -10.4335 C.ar    
  26 C26            8.7151   -13.1948    -9.4029 C.ar    
  27 C27            9.3205   -12.8599    -8.1021 C.2     
  28 O28            8.6307   -12.4097    -7.2087 O.2     
  29 O29           10.6393   -13.0528    -7.9031 O.3     
  30 S30            9.9320   -14.6707   -12.9468 S.o2    
  31 O31            9.6189   -13.9140   -14.1081 O.2     
  32 O32           11.2485   -14.7827   -12.4237 O.2     
  33 N33            9.4128   -16.2154   -13.2410 N.pl3   
  34 Cl34           6.8678   -14.2255   -13.3861 Cl      
@<TRIPOS>BOND
   1    1    2 1
   2    2    3 1
   3    3    4 1
   4    4    5 1
   5    5    6 1
   6    6    7 1
   7    7    8 1
   8    8    9 1
   9    9   10 1
  10   10   11 1
  11   11   12 1
  12   12   17 ar
  13   12   13 ar
  14   13   14 ar
  15   14   15 ar
  16   14   19 1
  17   15   16 ar
  18   16   17 ar
  19   16   18 1
  20   19   20 1
  21   20   21 1
  22   21   26 ar
  23   21   22 ar
  24   22   23 ar
  25   23   24 ar
  26   23   34 1
  27   24   25 ar
  28   24   30 1
  29   25   26 ar
  30   26   27 1
  31   27   28 2
  32   27   29 1
  33   30   31 2
  34   30   32 2
  35   30   33 1





