#       Name:                66G
#       Creating user name   gbret
#       Creation time:       Fri Sep  9 02:03:03 2016


#       File generated by GOLD software.
#

@<TRIPOS>MOLECULE
66G
    24    25     1
SMALL
NO_CHARGES


@<TRIPOS>ATOM
      1 O1           3.8576  -2.5579  -0.3211 O.co2          1 <1>                0.0000
      2 C2           3.8393  -1.2100  -0.3137 C.2            1 <1>                0.0000
      3 S3           5.3101  -0.3339  -0.3230 S.3            1 <1>                0.0000
      4 C4           2.6224  -0.5293  -0.3042 C.2            1 <1>                0.0000
      5 N5           1.3713  -1.0841  -0.2957 N.2            1 <1>                0.0000
      6 C6           0.4927  -0.1333  -0.2880 C.2            1 <1>                0.0000
      7 O7           1.1004   1.0668  -0.2908 O.3            1 <1>                0.0000
      8 C8           2.4347   0.8696  -0.2952 C.2            1 <1>                0.0000
      9 O9           3.3031   1.7264  -0.2984 O.2            1 <1>                0.0000
     10 C10         -0.9998  -0.3416  -0.2777 C.3            1 <1>                0.0000
     11 C11         -1.5223  -0.4278   1.1780 C.3            1 <1>                0.0000
     12 C12         -3.0052  -0.0065   1.0042 C.3            1 <1>                0.0000
     13 C13         -2.9349   1.0633  -0.1057 C.3            1 <1>                0.0000
     14 N14         -1.6872   0.8323  -0.8567 N.4            1 <1>                0.0000
     15 H15         -1.0922   1.6440  -0.7845 H              1 <1>                0.0000
     16 H16         -1.9026   0.6533  -1.8260 H              1 <1>                0.0000
     17 H17          6.2310  -1.4015  -0.3375 H              1 <1>                0.0000
     18 H18         -1.2600  -1.2444  -0.8302 H              1 <1>                0.0000
     19 H19         -1.4478  -1.4460   1.5599 H              1 <1>                0.0000
     20 H20         -0.9914   0.2702   1.8254 H              1 <1>                0.0000
     21 H21         -3.6117  -0.8540   0.6847 H              1 <1>                0.0000
     22 H22         -3.3951   0.4213   1.9278 H              1 <1>                0.0000
     23 H23         -3.7922   0.9639  -0.7714 H              1 <1>                0.0000
     24 H24         -2.9212   2.0585   0.3389 H              1 <1>                0.0000
@<TRIPOS>BOND
    1    1    2 ar    
    2    2    3 1     
    3    2    4 2     
    4    3   17 1     
    5    4    8 1     
    6    4    5 1     
    7    5    6 2     
    8    6    7 1     
    9    6   10 1     
   10    7    8 1     
   11    8    9 2     
   12   10   14 1     
   13   10   11 1     
   14   10   18 1     
   15   11   12 1     
   16   11   19 1     
   17   11   20 1     
   18   12   13 1     
   19   12   21 1     
   20   12   22 1     
   21   13   14 1     
   22   13   23 1     
   23   13   24 1     
   24   14   15 1     
   25   14   16 1     
@<TRIPOS>SUBSTRUCTURE
      1 ****           1
@<TRIPOS>SET
DONOR_HYDROGENS      STATIC     ATOMS    <user>   **** ""
2 15 16
ATOM$RED        STATIC     ATOMS    COLORGROUP SYSTEM
2 15 16
