#       Name:                67Z
#       Creating user name   gbret
#       Creation time:       Fri Sep  9 02:05:27 2016


#       File generated by GOLD software.
#

@<TRIPOS>MOLECULE
67Z
    58    60     1
SMALL
NO_CHARGES


@<TRIPOS>ATOM
      1 C1          -2.7785   4.7810   1.3037 C.3            1 <1>                0.0000
      2 O2          -2.7591   3.3521   1.2958 O.3            1 <1>                0.0000
      3 C3          -2.1350   2.7375   2.3359 C.ar           1 <1>                0.0000
      4 C4          -1.5590   3.4953   3.3449 C.ar           1 <1>                0.0000
      5 C5          -0.9251   2.8710   4.4013 C.ar           1 <1>                0.0000
      6 C6          -0.8645   1.4862   4.4533 C.ar           1 <1>                0.0000
      7 O7          -0.2403   0.8715   5.4934 O.3            1 <1>                0.0000
      8 C8           0.3306   1.7138   6.4968 C.3            1 <1>                0.0000
      9 C9          -1.4407   0.7285   3.4448 C.ar           1 <1>                0.0000
     10 C10         -2.0793   1.3529   2.3908 C.ar           1 <1>                0.0000
     11 C11         -1.3749  -0.7760   3.5014 C.3            1 <1>                0.0000
     12 C12         -2.5655  -1.3232   4.3166 C.3            1 <1>                0.0000
     13 C13         -2.9612  -2.6046   3.5364 C.3            1 <1>                0.0000
     14 C14         -2.6907  -2.1739   2.0732 C.3            1 <1>                0.0000
     15 N15         -1.4823  -1.3325   2.1448 N.am           1 <1>                0.0000
     16 C16         -0.6191  -1.1099   1.1339 C.2            1 <1>                0.0000
     17 O17          0.3461  -0.3962   1.3067 O.2            1 <1>                0.0000
     18 C18         -0.8533  -1.7480  -0.2111 C.3            1 <1>                0.0000
     19 N19          0.2162  -1.3538  -1.1315 N.am           1 <1>                0.0000
     20 C20          0.2145  -1.8077  -2.4005 C.2            1 <1>                0.0000
     21 O21         -0.6746  -2.5443  -2.7815 O.2            1 <1>                0.0000
     22 N22          1.1984  -1.4450  -3.2472 N.am           1 <1>                0.0000
     23 C23          1.1965  -1.9384  -4.6267 C.3            1 <1>                0.0000
     24 C24          2.3946  -1.3898  -5.3580 C.ar           1 <1>                0.0000
     25 C25          2.3012  -0.1835  -6.0277 C.ar           1 <1>                0.0000
     26 C26          3.3973   0.3223  -6.6985 C.ar           1 <1>                0.0000
     27 C27          4.5946  -0.3821  -6.6999 C.ar           1 <1>                0.0000
     28 N28          5.7053   0.1268  -7.3769 N.pl3          1 <1>                0.0000
     29 C29          4.6849  -1.5935  -6.0261 C.ar           1 <1>                0.0000
     30 C30          3.5865  -2.0910  -5.3530 C.ar           1 <1>                0.0000
     31 H31         -1.7559   5.1583   1.2959 H              1 <1>                0.0000
     32 H32         -3.3057   5.1421   0.4206 H              1 <1>                0.0000
     33 H33         -3.2887   5.1325   2.2005 H              1 <1>                0.0000
     34 H34         -1.6058   4.5735   3.3043 H              1 <1>                0.0000
     35 H35         -0.4763   3.4611   5.1867 H              1 <1>                0.0000
     36 H36          1.0829   2.3596   6.0440 H              1 <1>                0.0000
     37 H37         -0.4517   2.3262   6.9452 H              1 <1>                0.0000
     38 H38          0.7959   1.0979   7.2664 H              1 <1>                0.0000
     39 H39         -2.5282   0.7629   1.6054 H              1 <1>                0.0000
     40 H40         -0.4355  -1.0889   3.9571 H              1 <1>                0.0000
     41 H41         -2.2564  -1.5700   5.3323 H              1 <1>                0.0000
     42 H42         -3.3879  -0.6078   4.3257 H              1 <1>                0.0000
     43 H43         -2.3281  -3.4455   3.8195 H              1 <1>                0.0000
     44 H44         -4.0144  -2.8430   3.6852 H              1 <1>                0.0000
     45 H45         -2.5080  -3.0479   1.4481 H              1 <1>                0.0000
     46 H46         -3.5313  -1.5983   1.6856 H              1 <1>                0.0000
     47 H47         -0.8580  -2.8326  -0.1029 H              1 <1>                0.0000
     48 H48         -1.8136  -1.4182  -0.6075 H              1 <1>                0.0000
     49 H49          0.9255  -0.7661  -0.8275 H              1 <1>                0.0000
     50 H50          1.9077  -0.8573  -2.9433 H              1 <1>                0.0000
     51 H51          1.2404  -3.0275  -4.6231 H              1 <1>                0.0000
     52 H52          0.2848  -1.6131  -5.1277 H              1 <1>                0.0000
     53 H53          1.3700   0.3634  -6.0265 H              1 <1>                0.0000
     54 H54          3.3237   1.2642  -7.2216 H              1 <1>                0.0000
     55 H55          5.6411   0.9729  -7.8467 H              1 <1>                0.0000
     56 H56          6.5408  -0.3661  -7.3772 H              1 <1>                0.0000
     57 H57          5.6142  -2.1439  -6.0256 H              1 <1>                0.0000
     58 H58          3.6561  -3.0326  -4.8286 H              1 <1>                0.0000
@<TRIPOS>BOND
    1    1    2 1     
    2    1   31 1     
    3    1   32 1     
    4    1   33 1     
    5    2    3 1     
    6    3   10 ar    
    7    3    4 ar    
    8    4    5 ar    
    9    4   34 1     
   10    5    6 ar    
   11    5   35 1     
   12    6    7 1     
   13    6    9 ar    
   14    7    8 1     
   15    8   36 1     
   16    8   37 1     
   17    8   38 1     
   18    9   10 ar    
   19    9   11 1     
   20   10   39 1     
   21   11   15 1     
   22   11   12 1     
   23   11   40 1     
   24   12   13 1     
   25   12   41 1     
   26   12   42 1     
   27   13   14 1     
   28   13   43 1     
   29   13   44 1     
   30   14   15 1     
   31   14   45 1     
   32   14   46 1     
   33   15   16 am    
   34   16   17 2     
   35   16   18 1     
   36   18   19 1     
   37   18   47 1     
   38   18   48 1     
   39   19   20 am    
   40   19   49 1     
   41   20   21 2     
   42   20   22 am    
   43   22   23 1     
   44   22   50 1     
   45   23   24 1     
   46   23   51 1     
   47   23   52 1     
   48   24   30 ar    
   49   24   25 ar    
   50   25   26 ar    
   51   25   53 1     
   52   26   27 ar    
   53   26   54 1     
   54   27   28 1     
   55   27   29 ar    
   56   28   55 1     
   57   28   56 1     
   58   29   30 ar    
   59   29   57 1     
   60   30   58 1     
@<TRIPOS>SUBSTRUCTURE
      1 ****           1
@<TRIPOS>SET
DONOR_HYDROGENS      STATIC     ATOMS    <user>   **** ""
4 49 50 55 56
ATOM$RED        STATIC     ATOMS    COLORGROUP SYSTEM
4 49 50 55 56
