#       Name:                697
#       Creating user name   gbret
#       Creation time:       Fri Sep  9 02:07:49 2016


#       File generated by GOLD software.
#

@<TRIPOS>MOLECULE
697
    28    30     1
SMALL
NO_CHARGES


@<TRIPOS>ATOM
      1 O1          -0.0797   5.9217   0.1187 O.3            1 <1>                0.0000
      2 C2          -0.0613   4.5632   0.1112 C.ar           1 <1>                0.0000
      3 C3          -0.0577   3.8774  -1.0963 C.ar           1 <1>                0.0000
      4 C4          -0.0390   2.4992  -1.1082 C.ar           1 <1>                0.0000
      5 C5          -0.0237   1.7927   0.0960 C.ar           1 <1>                0.0000
      6 C6          -0.0275   2.4860   1.3079 C.ar           1 <1>                0.0000
      7 C7          -0.0404   3.8644   1.3111 C.ar           1 <1>                0.0000
      8 C8          -0.0042   0.3151   0.0878 C.2            1 <1>                0.0000
      9 C9           0.0062  -0.4699   1.1917 C.2            1 <1>                0.0000
     10 C10          0.0245  -1.8524   0.7061 C.ar           1 <1>                0.0000
     11 C11          0.0411  -3.1007   1.3308 C.ar           1 <1>                0.0000
     12 C12          0.0563  -4.2539   0.5667 C.ar           1 <1>                0.0000
     13 O13          0.0720  -5.4691   1.1767 O.3            1 <1>                0.0000
     14 C14          0.0553  -4.1771  -0.8191 C.ar           1 <1>                0.0000
     15 C15          0.0393  -2.9387  -1.4587 C.ar           1 <1>                0.0000
     16 C16          0.0388  -2.8682  -2.8889 C.1            1 <1>                0.0000
     17 N17          0.0384  -2.8122  -4.0235 N.1            1 <1>                0.0000
     18 C18          0.0233  -1.7618  -0.6955 C.ar           1 <1>                0.0000
     19 O19          0.0001  -0.4538  -1.0189 O.3            1 <1>                0.0000
     20 H20          0.7982   6.3270   0.1125 H              1 <1>                0.0000
     21 H21         -0.0699   4.4246  -2.0273 H              1 <1>                0.0000
     22 H22         -0.0366   1.9665  -2.0477 H              1 <1>                0.0000
     23 H23         -0.0161   1.9432   2.2415 H              1 <1>                0.0000
     24 H24         -0.0430   4.4015   2.2481 H              1 <1>                0.0000
     25 H25          0.0023  -0.1430   2.2211 H              1 <1>                0.0000
     26 H26          0.0423  -3.1661   2.4088 H              1 <1>                0.0000
     27 H27         -0.8068  -5.8321   1.3529 H              1 <1>                0.0000
     28 H28          0.0672  -5.0835  -1.4061 H              1 <1>                0.0000
@<TRIPOS>BOND
    1    1    2 1     
    2    1   20 1     
    3    2    7 ar    
    4    2    3 ar    
    5    3    4 ar    
    6    3   21 1     
    7    4    5 ar    
    8    4   22 1     
    9    5    6 ar    
   10    5    8 1     
   11    6    7 ar    
   12    6   23 1     
   13    7   24 1     
   14    8   19 1     
   15    8    9 2     
   16    9   10 1     
   17    9   25 1     
   18   10   18 ar    
   19   10   11 ar    
   20   11   12 ar    
   21   11   26 1     
   22   12   13 1     
   23   12   14 ar    
   24   13   27 1     
   25   14   15 ar    
   26   14   28 1     
   27   15   16 1     
   28   15   18 ar    
   29   16   17 3     
   30   18   19 1     
@<TRIPOS>SUBSTRUCTURE
      1 ****           1
@<TRIPOS>SET
DONOR_HYDROGENS      STATIC     ATOMS    <user>   **** ""
2 20 27
ATOM$RED        STATIC     ATOMS    COLORGROUP SYSTEM
2 20 27
