#	Name:			69G
#	Creating user name:	drognan
#	Creation time:		Wed Sep  5 12:09:46 2018


#	Modifying user name:	drognan
#	Modification time:	Wed Sep  5 12:09:46 2018

@<TRIPOS>MOLECULE
69G
  26   28    0    0    0
SMALL
NO_CHARGES


@<TRIPOS>ATOM
   1 C1            -0.7084     1.1158    -0.9011 C.3     
   2 C2            -0.5712    -0.3839    -0.8466 C.2     
   3 C3            -0.0643    -0.9571     0.2167 C.2     
   4 C4             0.0730    -2.4568     0.2712 C.3     
   5 N5             1.4644    -2.8095     0.5638 N.am    
   6 C6             2.3308    -2.9828    -0.4734 C.2     
   7 C7             3.6312    -3.3104    -0.2523 C.2     
   8 C8             4.0902    -3.4757     1.1327 C.2     
   9 C9             5.3224    -3.8010     1.7322 C.2     
  10 C10            5.1402    -3.8070     3.0689 C.2     
  11 N11            3.8439    -3.4995     3.3509 N.pl3   
  12 H12            3.4586    -3.4389     4.2390 H       
  13 C13            3.1697    -3.2891     2.1698 C.2     
  14 C14            1.8432    -2.9456     1.8470 C.2     
  15 O15            1.0291    -2.7727     2.7393 O.2     
  16 C16            4.5673    -3.4976    -1.3866 C.ar    
  17 C17            5.1199    -4.7542    -1.6366 C.ar    
  18 C18            5.9921    -4.9311    -2.6925 C.ar    
  19 C19            6.3237    -3.8669    -3.5074 C.ar    
  20 C20            5.7776    -2.6044    -3.2679 C.ar    
  21 C21            4.8919    -2.4218    -2.2072 C.ar    
  22 C22            6.1332    -1.4652    -4.1410 C.2     
  23 O23            6.3494    -1.6497    -5.3229 O.2     
  24 N24            6.2175    -0.2224    -3.6265 N.am    
  25 C25            6.4504     0.9222    -4.5107 C.3     
  26 C26            6.0762    -0.0162    -2.1830 C.3     
@<TRIPOS>BOND
   1    1    2 1
   2    2    3 2
   3    3    4 1
   4    4    5 1
   5    5   14 am
   6    5    6 1
   7    6    7 2
   8    7    8 1
   9    7   16 1
  10    8   13 2
  11    8    9 1
  12    9   10 2
  13   10   11 1
  14   11   12 1
  15   11   13 1
  16   13   14 1
  17   14   15 2
  18   16   21 ar
  19   16   17 ar
  20   17   18 ar
  21   18   19 ar
  22   19   20 ar
  23   20   21 ar
  24   20   22 1
  25   22   23 2
  26   22   24 am
  27   24   25 1
  28   24   26 1





