#	Name:			6A6
#	Creating user name:	drognan
#	Creation time:		Wed Sep  5 12:09:46 2018


#	Modifying user name:	drognan
#	Modification time:	Wed Sep  5 12:09:46 2018

@<TRIPOS>MOLECULE
6A6
  27   30    0    0    0
SMALL
NO_CHARGES


@<TRIPOS>ATOM
   1 C1             0.4631     1.3640    -0.1687 C.ar    
   2 C2             1.7765     1.6691     0.1342 C.ar    
   3 C3             2.6322     0.6760     0.5800 C.ar    
   4 C4             2.1708    -0.6217     0.7218 C.ar    
   5 C5             0.8570    -0.9244     0.4183 C.ar    
   6 C6             0.0035     0.0680    -0.0267 C.ar    
   7 C7            -1.4289    -0.2634    -0.3573 C.3     
   8 H8            -1.5459    -1.3445    -0.4324 H       
   9 C9            -1.8125     0.3884    -1.6896 C.3     
  10 C10           -3.3038     0.1657    -1.9512 C.3     
  11 C11           -4.1226     0.8236    -0.8382 C.3     
  12 C12           -3.7652     0.1767     0.5037 C.3     
  13 N13           -2.3106     0.2554     0.6973 N.am    
  14 C14           -1.7954     0.7976     1.8185 C.2     
  15 O15           -0.5900     0.8681     1.9614 O.2     
  16 C16           -2.6946     1.3059     2.8732 C.ar    
  17 C17           -3.9371     0.6903     3.0908 C.ar    
  18 C18           -4.7780     1.1469     4.0594 C.ar    
  19 C19           -4.4117     2.2376     4.8497 C.ar    
  20 C20           -3.1665     2.8649     4.6413 C.ar    
  21 C21           -2.3066     2.3897     3.6525 C.ar    
  22 C22           -3.0886     3.9556     5.6163 C.2     
  23 N23           -4.1942     3.9420     6.3120 N.2     
  24 N24           -5.0253     2.9072     5.8721 N.pl3   
  25 H25           -5.8998     2.6971     6.2354 H       
  26 N26           -2.0256     4.8477     5.7735 N.pl3   
  27 F27            3.9165     0.9730     0.8760 F       
@<TRIPOS>BOND
   1    1    6 ar
   2    1    2 ar
   3    2    3 ar
   4    3    4 ar
   5    3   27 1
   6    4    5 ar
   7    5    6 ar
   8    6    7 1
   9    7    8 1
  10    7   13 1
  11    7    9 1
  12    9   10 1
  13   10   11 1
  14   11   12 1
  15   12   13 1
  16   13   14 am
  17   14   15 2
  18   14   16 1
  19   16   21 ar
  20   16   17 ar
  21   17   18 ar
  22   18   19 ar
  23   19   24 1
  24   19   20 ar
  25   20   21 ar
  26   20   22 1
  27   22   23 2
  28   22   26 1
  29   23   24 1
  30   24   25 1





