#	Name:			6AK
#	Creating user name:	drognan
#	Creation time:		Wed Sep  5 12:09:46 2018


#	Modifying user name:	drognan
#	Modification time:	Wed Sep  5 12:09:46 2018

@<TRIPOS>MOLECULE
6AK
  50   56    0    0    0
SMALL
NO_CHARGES


@<TRIPOS>ATOM
   1 C1            -0.0184     1.5028     0.0103 C.3     
   2 C2             0.0021    -0.0041     0.0020 C.ar    
   3 C3             0.0058    -0.6878    -1.1984 C.ar    
   4 C4             0.0251    -2.0748    -1.2055 C.ar    
   5 C5             0.0406    -2.7727    -0.0067 C.ar    
   6 C6             0.0368    -2.0854     1.1917 C.ar    
   7 C7             0.0229    -0.7018     1.1967 C.ar    
   8 Cl8            0.0182     0.1596     2.7039 Cl      
   9 C9             0.0537    -2.8430     2.4943 C.3     
  10 O10            0.0283    -2.7493    -2.3856 O.3     
  11 C11            0.0485    -4.1765    -2.3170 C.3     
  12 C12            0.0492    -4.7551    -3.7334 C.3     
  13 C13            0.0708    -6.2832    -3.6600 C.3     
  14 C14            0.0715    -6.8531    -5.0551 C.2     
  15 C15           -1.0712    -7.1811    -5.8294 C.ar    
  16 C16           -2.4495    -7.0896    -5.5910 C.ar    
  17 C17           -3.3381    -7.4892    -6.5465 C.ar    
  18 C18           -2.8938    -7.9917    -7.7622 C.ar    
  19 C19           -1.5347    -8.0953    -8.0273 C.ar    
  20 C20           -0.6063    -7.6861    -7.0595 C.ar    
  21 N21            0.7635    -7.6544    -7.0251 N.pl3   
  22 C22            1.1578    -7.1400    -5.7999 C.2     
  23 C23            2.5888    -6.9792    -5.4578 C.2     
  24 O24            3.0345    -7.2848    -4.3677 O.2     
  25 N25            3.3693    -6.4688    -6.4415 N.am    
  26 C26            2.7443    -5.8445    -7.5969 C.3     
  27 C27            2.3658    -6.8384    -8.6937 C.3     
  28 C28            1.7006    -8.0667    -8.0708 C.3     
  29 C29            4.7616    -6.5414    -6.3461 C.ar    
  30 C30            5.4354    -7.6276    -6.8634 C.ar    
  31 C31            6.8321    -7.7005    -6.7677 C.ar    
  32 C32            7.5508    -6.6786    -6.1506 C.ar    
  33 C33            6.8832    -5.5812    -5.6268 C.ar    
  34 C34            5.4810    -5.5056    -5.7282 C.ar    
  35 C35            5.0965    -4.2481    -5.0893 C.2     
  36 C36            6.2281    -3.6628    -4.6591 C.2     
  37 N37            7.3050    -4.4419    -4.9754 N.pl3   
  38 C38            8.6990    -4.1190    -4.6612 C.3     
  39 C39            7.5450    -8.8658    -7.3230 C.2     
  40 O40            6.9218    -9.7592    -7.8615 O.2     
  41 O41            8.8875    -8.9400    -7.2333 O.3     
  42 C42           -1.0672    -8.6372    -9.3277 C.2     
  43 C43           -0.8053    -9.9900    -9.6198 C.2     
  44 N44           -0.4145   -10.0686   -10.8644 N.2     
  45 N45           -0.4114    -8.7800   -11.4120 N.pl3   
  46 C46           -0.8188    -7.9162   -10.4592 C.2     
  47 C47           -0.9640    -6.4242   -10.6136 C.3     
  48 C48           -0.0361    -8.4307   -12.7843 C.3     
  49 C49           -0.9504   -11.1457    -8.6636 C.3     
  50 Cl50          -4.0459    -8.4947    -8.9594 Cl      
@<TRIPOS>BOND
   1    1    2 1
   2    2    7 ar
   3    2    3 ar
   4    3    4 ar
   5    4    5 ar
   6    4   10 1
   7    5    6 ar
   8    6    7 ar
   9    6    9 1
  10    7    8 1
  11   10   11 1
  12   11   12 1
  13   12   13 1
  14   13   14 1
  15   14   22 2
  16   14   15 1
  17   15   20 ar
  18   15   16 ar
  19   16   17 ar
  20   17   18 ar
  21   18   19 ar
  22   18   50 1
  23   19   20 ar
  24   19   42 1
  25   20   21 1
  26   21   28 1
  27   21   22 1
  28   22   23 1
  29   23   24 2
  30   23   25 am
  31   25   26 1
  32   25   29 1
  33   26   27 1
  34   27   28 1
  35   29   34 ar
  36   29   30 ar
  37   30   31 ar
  38   31   32 ar
  39   31   39 1
  40   32   33 ar
  41   33   37 1
  42   33   34 ar
  43   34   35 1
  44   35   36 2
  45   36   37 1
  46   37   38 1
  47   39   40 2
  48   39   41 1
  49   42   46 2
  50   42   43 1
  51   43   44 2
  52   43   49 1
  53   44   45 1
  54   45   46 1
  55   45   48 1
  56   46   47 1





