#       Name:                6BL
#       Creating user name   gbret
#       Creation time:       Fri Sep  9 02:11:13 2016


#       File generated by GOLD software.
#

@<TRIPOS>MOLECULE
6BL
    23    25     1
SMALL
NO_CHARGES


@<TRIPOS>ATOM
      1 C1          -0.2280   2.0590  -2.1535 C.3            1 <1>                0.0000
      2 C2          -0.2075   0.5521  -2.1618 C.2            1 <1>                0.0000
      3 N3          -0.2936  -0.2094  -3.2181 N.2            1 <1>                0.0000
      4 N4          -0.2378  -1.5498  -2.8210 N.pl3          1 <1>                0.0000
      5 H5          -0.2810  -2.3183  -3.4113 H              1 <1>                0.0000
      6 C6          -0.1135  -1.5932  -1.4741 C.2            1 <1>                0.0000
      7 O7          -0.0192  -2.6266  -0.6136 O.3            1 <1>                0.0000
      8 C8           0.1008  -2.4620   0.7137 C.2            1 <1>                0.0000
      9 O9           0.1824  -3.4332   1.4414 O.2            1 <1>                0.0000
     10 C10          0.1340  -1.1110   1.2875 C.ar           1 <1>                0.0000
     11 C11          0.2578  -0.8945   2.6591 C.ar           1 <1>                0.0000
     12 C12          0.2842   0.3951   3.1440 C.ar           1 <1>                0.0000
     13 C13          0.1889   1.4782   2.2813 C.ar           1 <1>                0.0000
     14 C14          0.0658   1.2853   0.9213 C.ar           1 <1>                0.0000
     15 C15          0.0372  -0.0080   0.4113 C.ar           1 <1>                0.0000
     16 C16         -0.0861  -0.2793  -1.0313 C.2            1 <1>                0.0000
     17 H17          0.7946   2.4362  -2.1433 H              1 <1>                0.0000
     18 H18         -0.7396   2.4203  -3.0455 H              1 <1>                0.0000
     19 H19         -0.7537   2.4103  -1.2657 H              1 <1>                0.0000
     20 H20          0.3322  -1.7319   3.3371 H              1 <1>                0.0000
     21 H21          0.3797   0.5648   4.2063 H              1 <1>                0.0000
     22 H22          0.2109   2.4820   2.6791 H              1 <1>                0.0000
     23 H23         -0.0082   2.1333   0.2567 H              1 <1>                0.0000
@<TRIPOS>BOND
    1    1    2 1     
    2    1   17 1     
    3    1   18 1     
    4    1   19 1     
    5    2   16 1     
    6    2    3 2     
    7    3    4 1     
    8    4    5 1     
    9    4    6 1     
   10    6   16 2     
   11    6    7 1     
   12    7    8 1     
   13    8    9 2     
   14    8   10 1     
   15   10   15 ar    
   16   10   11 ar    
   17   11   12 ar    
   18   11   20 1     
   19   12   13 ar    
   20   12   21 1     
   21   13   14 ar    
   22   13   22 1     
   23   14   15 ar    
   24   14   23 1     
   25   15   16 1     
@<TRIPOS>SUBSTRUCTURE
      1 ****           1
@<TRIPOS>SET
DONOR_HYDROGENS      STATIC     ATOMS    <user>   **** ""
1 5
ATOM$RED        STATIC     ATOMS    COLORGROUP SYSTEM
1 5
