#       Name:                6CN
#       Creating user name   gbret
#       Creation time:       Fri Sep  9 02:12:24 2016


#       File generated by GOLD software.
#

@<TRIPOS>MOLECULE
6CN
    33    34     1
SMALL
NO_CHARGES


@<TRIPOS>ATOM
      1 O1           1.1642   2.3472  -1.4748 O.3            1 <1>                0.0000
      2 C2           1.1836   0.9183  -1.4827 C.3            1 <1>                0.0000
      3 C3           1.7363   0.3587  -0.1435 C.3            1 <1>                0.0000
      4 O4           2.7517   1.2141   0.3847 O.3            1 <1>                0.0000
      5 C5           0.4835   0.3710   0.7586 C.3            1 <1>                0.0000
      6 O6          -0.6656   0.3837  -0.0965 O.3            1 <1>                0.0000
      7 C7          -0.2540   0.3403  -1.4721 C.3            1 <1>                0.0000
      8 C8          -1.1800   1.2039  -2.3310 C.3            1 <1>                0.0000
      9 O9          -2.4874   0.6274  -2.3495 O.3            1 <1>                0.0000
     10 P10         -3.7197   1.2746  -3.1587 P.3            1 <1>                0.0000
     11 O11         -3.4167   1.2296  -4.6951 O.co2          1 <1>                0.0000
     12 O12         -5.0252   0.4617  -2.8598 O.co2          1 <1>                0.0000
     13 O13         -3.9162   2.7623  -2.7085 O.co2          1 <1>                0.0000
     14 N14          0.4644  -0.8289   1.5989 N.am           1 <1>                0.0000
     15 C15          0.5731  -0.7072   2.9684 C.2            1 <1>                0.0000
     16 C16          0.5545  -1.8274   3.7428 C.2            1 <1>                0.0000
     17 C17          0.4233  -3.0929   3.1162 C.2            1 <1>                0.0000
     18 O18          0.4036  -4.1098   3.7854 O.2            1 <1>                0.0000
     19 N19          0.3202  -3.1610   1.7741 N.am           1 <1>                0.0000
     20 H20          0.2304  -4.0247   1.3419 H              1 <1>                0.0000
     21 C21          0.3354  -2.0409   1.0293 C.2            1 <1>                0.0000
     22 O22          0.2407  -2.1259  -0.1799 O.2            1 <1>                0.0000
     23 C23          0.7047   0.5854   3.5707 C.1            1 <1>                0.0000
     24 N24          0.8092   1.6107   4.0484 N.1            1 <1>                0.0000
     25 H25          2.0421   2.7525  -1.4810 H              1 <1>                0.0000
     26 H26          1.7527   0.5403  -2.3319 H              1 <1>                0.0000
     27 H27          2.1145  -0.6553  -0.2735 H              1 <1>                0.0000
     28 H28          3.5240   1.3090  -0.1896 H              1 <1>                0.0000
     29 H29          0.4879   1.2627   1.3853 H              1 <1>                0.0000
     30 H30         -0.2510  -0.6879  -1.8338 H              1 <1>                0.0000
     31 H31         -1.2318   2.2087  -1.9119 H              1 <1>                0.0000
     32 H32         -0.7905   1.2539  -3.3478 H              1 <1>                0.0000
     33 H33          0.6386  -1.7532   4.8170 H              1 <1>                0.0000
@<TRIPOS>BOND
    1    1    2 1     
    2    1   25 1     
    3    2    7 1     
    4    2    3 1     
    5    2   26 1     
    6    3    4 1     
    7    3    5 1     
    8    3   27 1     
    9    4   28 1     
   10    5    6 1     
   11    5   14 1     
   12    5   29 1     
   13    6    7 1     
   14    7    8 1     
   15    7   30 1     
   16    8    9 1     
   17    8   31 1     
   18    8   32 1     
   19    9   10 1     
   20   10   11 ar    
   21   10   12 ar    
   22   10   13 ar    
   23   14   21 1     
   24   14   15 1     
   25   15   16 2     
   26   15   23 1     
   27   16   17 1     
   28   16   33 1     
   29   17   18 2     
   30   17   19 1     
   31   19   20 1     
   32   19   21 1     
   33   21   22 2     
   34   23   24 3     
@<TRIPOS>SUBSTRUCTURE
      1 ****           1
@<TRIPOS>SET
DONOR_HYDROGENS      STATIC     ATOMS    <user>   **** ""
3 25 28 20
ATOM$RED        STATIC     ATOMS    COLORGROUP SYSTEM
3 25 28 20
