#	Name:			6JB
#	Creating user name:	drognan
#	Creation time:		Wed Sep  5 12:09:46 2018


#	Modifying user name:	drognan
#	Modification time:	Wed Sep  5 12:09:46 2018

@<TRIPOS>MOLECULE
6JB
  24   24    0    0    0
SMALL
NO_CHARGES


@<TRIPOS>ATOM
   1 C1            -2.8105    -2.4335    -1.3854 C.3     
   2 N2            -1.5415    -2.0702    -0.7498 N.am    
   3 C3            -1.2787    -2.4733     0.5092 C.2     
   4 O4            -2.0927    -3.1367     1.1159 O.2     
   5 C5             0.0267    -2.0996     1.1630 C.3     
   6 C6             0.0300    -2.5900     2.6122 C.3     
   7 H7            -0.8618    -2.2246     3.1215 H       
   8 C8             0.0383    -4.1198     2.6329 C.3     
   9 C9            -0.0841    -4.6110     4.0767 C.3     
  10 C10           -0.0758    -6.1409     4.0974 C.3     
  11 C11           -0.1964    -6.6247     5.5196 C.ar    
  12 C12            0.9415    -6.8332     6.2772 C.ar    
  13 C13            0.8343    -7.2770     7.5820 C.ar    
  14 C14           -0.4108    -7.5137     8.1323 C.ar    
  15 C15           -1.5537    -7.3054     7.3745 C.ar    
  16 C16           -1.4436    -6.8541     6.0670 C.ar    
  17 O17           -2.7795    -7.5375     7.9135 O.3     
  18 C18           -2.8170    -7.9951     9.2667 C.3     
  19 C19            1.2767    -2.0635     3.3259 C.3     
  20 P20            1.0491    -0.2993     3.7248 P.3     
  21 O21            0.8140     0.4621     2.4777 O.2     
  22 O22           -0.2176    -0.1296     4.7041 O.3     
  23 O23            2.3704     0.2607     4.4546 O.3     
  24 O24           -0.5911    -1.2956    -1.4582 O.3     
@<TRIPOS>BOND
   1    1    2 1
   2    2    3 am
   3    2   24 1
   4    3    4 2
   5    3    5 1
   6    5    6 1
   7    6    7 1
   8    6    8 1
   9    6   19 1
  10    8    9 1
  11    9   10 1
  12   10   11 1
  13   11   16 ar
  14   11   12 ar
  15   12   13 ar
  16   13   14 ar
  17   14   15 ar
  18   15   16 ar
  19   15   17 1
  20   17   18 1
  21   19   20 1
  22   20   21 2
  23   20   22 1
  24   20   23 1





