#       Name:                6LI
#       Creating user name   gbret
#       Creation time:       Fri Sep  9 02:22:14 2016


#       File generated by GOLD software.
#

@<TRIPOS>MOLECULE
6LI
    54    57     1
SMALL
NO_CHARGES


@<TRIPOS>ATOM
      1 N1           1.4248   5.6202  -1.0877 N.pl3          1 <1>                0.0000
      2 C2           1.4434   4.2481  -1.0953 C.2            1 <1>                0.0000
      3 N3           0.3031   3.5944  -1.0933 N.2            1 <1>                0.0000
      4 C4           0.2728   2.2567  -1.1009 C.2            1 <1>                0.0000
      5 N5          -0.7297   1.3250  -1.1013 N.pl3          1 <1>                0.0000
      6 C6          -0.1439   0.0923  -1.1113 C.2            1 <1>                0.0000
      7 N7           1.1508   0.2194  -1.1170 N.pl3          1 <1>                0.0000
      8 C8           2.1107  -0.8872  -1.1287 C.3            1 <1>                0.0000
      9 C9           2.5476  -1.1985   0.3042 C.3            1 <1>                0.0000
     10 O10          3.4839  -2.2779   0.2929 O.3            1 <1>                0.0000
     11 C11          3.9744  -2.6819   1.4944 C.ar           1 <1>                0.0000
     12 C12          3.5585  -2.0559   2.6604 C.ar           1 <1>                0.0000
     13 C13          4.0582  -2.4680   3.8806 C.ar           1 <1>                0.0000
     14 C14          4.9734  -3.5040   3.9402 C.ar           1 <1>                0.0000
     15 Cl15         5.6004  -4.0196   5.4747 Cl             1 <1>                0.0000
     16 C16          5.3891  -4.1300   2.7783 C.ar           1 <1>                0.0000
     17 C17          4.8873  -3.7246   1.5567 C.ar           1 <1>                0.0000
     18 C18          1.4725   1.5360  -1.1111 C.2            1 <1>                0.0000
     19 C19          2.6924   2.2520  -1.1130 C.2            1 <1>                0.0000
     20 O20          3.7611   1.6654  -1.1218 O.2            1 <1>                0.0000
     21 N21          2.6438   3.6026  -1.1102 N.am           1 <1>                0.0000
     22 H22          3.4673   4.1152  -1.1115 H              1 <1>                0.0000
     23 C23         -2.1685   1.6005  -1.0920 C.3            1 <1>                0.0000
     24 O24         -2.9035   0.4514  -1.5666 O.3            1 <1>                0.0000
     25 C25         -4.2464   0.6245  -1.0640 C.3            1 <1>                0.0000
     26 C26         -4.9842  -0.7157  -1.0433 C.3            1 <1>                0.0000
     27 O27         -5.1803  -1.1722  -2.3832 O.3            1 <1>                0.0000
     28 P28         -5.9257  -2.5543  -2.7384 P.3            1 <1>                0.0000
     29 O29         -7.4254  -2.4681  -2.2933 O.co2          1 <1>                0.0000
     30 O30         -5.8531  -2.8047  -4.2832 O.co2          1 <1>                0.0000
     31 O31         -5.2242  -3.7348  -1.9844 O.co2          1 <1>                0.0000
     32 C32         -4.0638   1.1600   0.3735 C.3            1 <1>                0.0000
     33 O33         -4.1001   0.0866   1.3161 O.3            1 <1>                0.0000
     34 C34         -2.6654   1.8169   0.3546 C.3            1 <1>                0.0000
     35 O35         -1.7953   1.1693   1.2850 O.3            1 <1>                0.0000
     36 H36          2.2581   6.1166  -1.0929 H              1 <1>                0.0000
     37 H37          0.5782   6.0938  -1.0811 H              1 <1>                0.0000
     38 H38         -0.6756  -0.8477  -1.1135 H              1 <1>                0.0000
     39 H39          1.6429  -1.7694  -1.5656 H              1 <1>                0.0000
     40 H40          2.9815  -0.6066  -1.7212 H              1 <1>                0.0000
     41 H41          3.0154  -0.3163   0.7412 H              1 <1>                0.0000
     42 H42          1.6767  -1.4791   0.8967 H              1 <1>                0.0000
     43 H43          2.8447  -1.2467   2.6142 H              1 <1>                0.0000
     44 H44          3.7346  -1.9808   4.7885 H              1 <1>                0.0000
     45 H45          6.1032  -4.9387   2.8269 H              1 <1>                0.0000
     46 H46          5.2120  -4.2134   0.6501 H              1 <1>                0.0000
     47 H47         -2.3907   2.4745  -1.7043 H              1 <1>                0.0000
     48 H48         -4.7896   1.3466  -1.6736 H              1 <1>                0.0000
     49 H49         -4.3929  -1.4475  -0.4930 H              1 <1>                0.0000
     50 H50         -5.9516  -0.5904  -0.5569 H              1 <1>                0.0000
     51 H51         -4.8315   1.8979   0.6066 H              1 <1>                0.0000
     52 H52         -3.9902   0.3664   2.2352 H              1 <1>                0.0000
     53 H53         -2.7403   2.8812   0.5775 H              1 <1>                0.0000
     54 H54         -2.0924   1.2222   2.2037 H              1 <1>                0.0000
@<TRIPOS>BOND
    1    1    2 1     
    2    1   36 1     
    3    1   37 1     
    4    2   21 1     
    5    2    3 2     
    6    3    4 1     
    7    4   18 2     
    8    4    5 1     
    9    5    6 2     
   10    5   23 1     
   11    6    7 1     
   12    6   38 1     
   13    7    8 1     
   14    7   18 1     
   15    8    9 1     
   16    8   39 1     
   17    8   40 1     
   18    9   10 1     
   19    9   41 1     
   20    9   42 1     
   21   10   11 1     
   22   11   17 ar    
   23   11   12 ar    
   24   12   13 ar    
   25   12   43 1     
   26   13   14 ar    
   27   13   44 1     
   28   14   15 1     
   29   14   16 ar    
   30   16   17 ar    
   31   16   45 1     
   32   17   46 1     
   33   18   19 1     
   34   19   20 2     
   35   19   21 am    
   36   21   22 1     
   37   23   34 1     
   38   23   24 1     
   39   23   47 1     
   40   24   25 1     
   41   25   26 1     
   42   25   32 1     
   43   25   48 1     
   44   26   27 1     
   45   26   49 1     
   46   26   50 1     
   47   27   28 1     
   48   28   29 ar    
   49   28   30 ar    
   50   28   31 ar    
   51   32   33 1     
   52   32   34 1     
   53   32   51 1     
   54   33   52 1     
   55   34   35 1     
   56   34   53 1     
   57   35   54 1     
@<TRIPOS>SUBSTRUCTURE
      1 ****           1
@<TRIPOS>SET
DONOR_HYDROGENS      STATIC     ATOMS    <user>   **** ""
5 36 37 22 52 54
ATOM$RED        STATIC     ATOMS    COLORGROUP SYSTEM
5 36 37 22 52 54
