#       Name:                6Q7
#       Creating user name   gbret
#       Creation time:       Fri Sep  9 02:27:05 2016


#       File generated by GOLD software.
#

@<TRIPOS>MOLECULE
6Q7
    59    62     1
SMALL
NO_CHARGES


@<TRIPOS>ATOM
      1 C1          -4.1394   2.3767   1.6103 C.3            1 <1>                0.0000
      2 C2          -4.0253   1.0418   2.3491 C.3            1 <1>                0.0000
      3 C3          -3.4459   1.2794   3.7451 C.3            1 <1>                0.0000
      4 C4          -5.4121   0.4077   2.4738 C.3            1 <1>                0.0000
      5 C5          -3.1177   0.1175   1.5792 C.ar           1 <1>                0.0000
      6 C6          -3.6010  -1.0906   1.1085 C.ar           1 <1>                0.0000
      7 C7          -2.7741  -1.9448   0.4014 C.ar           1 <1>                0.0000
      8 C8          -1.4607  -1.5964   0.1609 C.ar           1 <1>                0.0000
      9 C9          -0.9675  -0.3797   0.6323 C.ar           1 <1>                0.0000
     10 C10         -1.8083   0.4801   1.3402 C.ar           1 <1>                0.0000
     11 C11          0.4396   0.0001   0.3780 C.2            1 <1>                0.0000
     12 C12          1.1950   0.8475   1.1339 C.2            1 <1>                0.0000
     13 C13          2.4684   0.9307   0.5434 C.2            1 <1>                0.0000
     14 N14          2.4797   0.1624  -0.5276 N.2            1 <1>                0.0000
     15 N15          1.2211  -0.4390  -0.6538 N.pl3          1 <1>                0.0000
     16 C16          0.8300  -1.3270  -1.6633 C.ar           1 <1>                0.0000
     17 C17         -0.3905  -1.1580  -2.3043 C.ar           1 <1>                0.0000
     18 C18         -0.7733  -2.0356  -3.2995 C.ar           1 <1>                0.0000
     19 C19          0.0570  -3.0817  -3.6580 C.ar           1 <1>                0.0000
     20 C20          1.2726  -3.2530  -3.0214 C.ar           1 <1>                0.0000
     21 C21          1.6641  -2.3752  -2.0296 C.ar           1 <1>                0.0000
     22 S22         -0.4353  -4.1992  -4.9283 S.o2           1 <1>                0.0000
     23 C23          0.2105  -3.4620  -6.4549 C.3            1 <1>                0.0000
     24 O24          0.2568  -5.4024  -4.6241 O.2            1 <1>                0.0000
     25 O25         -1.8552  -4.1462  -4.9108 O.2            1 <1>                0.0000
     26 C26          3.6041   1.7434   1.0404 C.ar           1 <1>                0.0000
     27 C27          3.4581   2.5116   2.1964 C.ar           1 <1>                0.0000
     28 C28          4.5073   3.2643   2.6573 C.ar           1 <1>                0.0000
     29 C29          5.7248   3.2615   1.9684 C.ar           1 <1>                0.0000
     30 C30          5.8695   2.4906   0.8102 C.ar           1 <1>                0.0000
     31 C31          4.8198   1.7350   0.3551 C.ar           1 <1>                0.0000
     32 C32          6.8534   4.0701   2.4619 C.2            1 <1>                0.0000
     33 O33          6.7260   4.7444   3.4746 O.co2          1 <1>                0.0000
     34 O34          7.9177   4.0672   1.8590 O.co2          1 <1>                0.0000
     35 H35         -3.1514   2.8284   1.5215 H              1 <1>                0.0000
     36 H36         -4.5522   2.2074   0.6158 H              1 <1>                0.0000
     37 H37         -4.7959   3.0453   2.1672 H              1 <1>                0.0000
     38 H38         -4.1023   1.9480   4.3020 H              1 <1>                0.0000
     39 H39         -3.3646   0.3284   4.2715 H              1 <1>                0.0000
     40 H40         -2.4578   1.7312   3.6563 H              1 <1>                0.0000
     41 H41         -5.8249   0.2384   1.4793 H              1 <1>                0.0000
     42 H42         -5.3309  -0.5433   3.0001 H              1 <1>                0.0000
     43 H43         -6.0686   1.0763   3.0307 H              1 <1>                0.0000
     44 H44         -4.6281  -1.3680   1.2944 H              1 <1>                0.0000
     45 H45         -3.1572  -2.8866   0.0370 H              1 <1>                0.0000
     46 H46         -0.8159  -2.2645  -0.3907 H              1 <1>                0.0000
     47 H47         -1.4323   1.4235   1.7077 H              1 <1>                0.0000
     48 H48          0.8725   1.3630   2.0265 H              1 <1>                0.0000
     49 H49         -1.0395  -0.3414  -2.0245 H              1 <1>                0.0000
     50 H50         -1.7224  -1.9050  -3.7981 H              1 <1>                0.0000
     51 H51          1.9187  -4.0712  -3.3035 H              1 <1>                0.0000
     52 H52          2.6136  -2.5095  -1.5328 H              1 <1>                0.0000
     53 H53          1.2949  -3.3760  -6.3864 H              1 <1>                0.0000
     54 H54         -0.0509  -4.0950  -7.3029 H              1 <1>                0.0000
     55 H55         -0.2246  -2.4721  -6.5926 H              1 <1>                0.0000
     56 H56          2.5180   2.5135   2.7280 H              1 <1>                0.0000
     57 H57          4.3938   3.8592   3.5515 H              1 <1>                0.0000
     58 H58          6.8086   2.4876   0.2769 H              1 <1>                0.0000
     59 H59          4.9311   1.1396  -0.5391 H              1 <1>                0.0000
@<TRIPOS>BOND
    1    1    2 1     
    2    1   35 1     
    3    1   36 1     
    4    1   37 1     
    5    2    3 1     
    6    2    4 1     
    7    2    5 1     
    8    3   38 1     
    9    3   39 1     
   10    3   40 1     
   11    4   41 1     
   12    4   42 1     
   13    4   43 1     
   14    5   10 ar    
   15    5    6 ar    
   16    6    7 ar    
   17    6   44 1     
   18    7    8 ar    
   19    7   45 1     
   20    8    9 ar    
   21    8   46 1     
   22    9   10 ar    
   23    9   11 1     
   24   10   47 1     
   25   11   15 1     
   26   11   12 2     
   27   12   13 1     
   28   12   48 1     
   29   13   14 2     
   30   13   26 1     
   31   14   15 1     
   32   15   16 1     
   33   16   21 ar    
   34   16   17 ar    
   35   17   18 ar    
   36   17   49 1     
   37   18   19 ar    
   38   18   50 1     
   39   19   20 ar    
   40   19   22 1     
   41   20   21 ar    
   42   20   51 1     
   43   21   52 1     
   44   22   23 1     
   45   22   24 2     
   46   22   25 2     
   47   23   53 1     
   48   23   54 1     
   49   23   55 1     
   50   26   31 ar    
   51   26   27 ar    
   52   27   28 ar    
   53   27   56 1     
   54   28   29 ar    
   55   28   57 1     
   56   29   30 ar    
   57   29   32 1     
   58   30   31 ar    
   59   30   58 1     
   60   31   59 1     
   61   32   33 ar    
   62   32   34 ar    
@<TRIPOS>SUBSTRUCTURE
      1 ****           1
