#	Name:			6SK
#	Creating user name:	drognan
#	Creation time:		Wed Sep  5 12:09:46 2018


#	Modifying user name:	drognan
#	Modification time:	Wed Sep  5 12:09:46 2018

@<TRIPOS>MOLECULE
6SK
  30   33    0    0    0
SMALL
NO_CHARGES


@<TRIPOS>ATOM
   1 C1             0.3311     1.5132    -0.5124 C.3     
   2 C2            -0.0753     0.1046    -0.0745 C.3     
   3 C3             0.5660    -0.2139     1.2777 C.3     
   4 C4            -1.5981     0.0296     0.0529 C.3     
   5 C5             0.4001    -0.9103    -1.1160 C.3     
   6 N6             1.8667    -0.8823    -1.1934 N.3     
   7 C7             2.4729    -1.7179    -0.1230 C.3     
   8 C8             3.8939    -2.0175    -0.6645 C.3     
   9 H9             4.5642    -1.1794    -0.4733 H       
  10 C10            3.6559    -2.1926    -2.1838 C.3     
  11 H11            3.5611    -3.2494    -2.4335 H       
  12 C12            2.3390    -1.4583    -2.4624 C.3     
  13 C13            1.3150    -2.3902    -3.0520 C.ar    
  14 C14            0.7185    -3.5461    -2.6000 C.ar    
  15 C15           -0.2116    -4.1991    -3.3889 C.ar    
  16 C16           -0.5403    -3.6874    -4.6324 C.ar    
  17 C17            0.0551    -2.5283    -5.0883 C.ar    
  18 C18            0.9922    -1.8653    -4.2992 C.ar    
  19 N19            1.7189    -0.6964    -4.5339 N.am    
  20 C20            2.5306    -0.3876    -3.5055 C.2     
  21 O21            3.2734     0.5684    -3.4325 O.2     
  22 Cl22          -1.7062    -4.5072    -5.6234 Cl      
  23 C23            4.7826    -1.5689    -2.9665 C.ar    
  24 C24            5.4051    -0.4289    -2.4926 C.ar    
  25 C25            6.4386     0.1438    -3.2099 C.ar    
  26 C26            6.8501    -0.4228    -4.4018 C.ar    
  27 C27            6.2276    -1.5634    -4.8764 C.ar    
  28 C28            5.1971    -2.1397    -4.1548 C.ar    
  29 Cl29           6.7438    -2.2755    -6.3731 Cl      
  30 N30            4.4263    -3.2519    -0.0724 N.3     
@<TRIPOS>BOND
   1    1    2 1
   2    2    3 1
   3    2    4 1
   4    2    5 1
   5    5    6 1
   6    6   12 1
   7    6    7 1
   8    7    8 1
   9    8    9 1
  10    8   10 1
  11    8   30 1
  12   10   11 1
  13   10   12 1
  14   10   23 1
  15   12   20 1
  16   12   13 1
  17   13   18 ar
  18   13   14 ar
  19   14   15 ar
  20   15   16 ar
  21   16   17 ar
  22   16   22 1
  23   17   18 ar
  24   18   19 1
  25   19   20 am
  26   20   21 2
  27   23   28 ar
  28   23   24 ar
  29   24   25 ar
  30   25   26 ar
  31   26   27 ar
  32   27   28 ar
  33   27   29 1





