#	Name:			6ST
#	Creating user name:	drognan
#	Creation time:		Wed Sep  5 12:09:46 2018


#	Modifying user name:	drognan
#	Modification time:	Wed Sep  5 12:09:46 2018

@<TRIPOS>MOLECULE
6ST
  43   49    0    0    0
SMALL
NO_CHARGES


@<TRIPOS>ATOM
   1 C1             1.3064    -0.6708     1.2838 C.ar    
   2 C2             2.4123     0.0962     0.9670 C.ar    
   3 C3             2.2483     1.3469     0.4024 C.ar    
   4 C4             0.9758     1.8324     0.1537 C.ar    
   5 C5            -0.1320     1.0634     0.4715 C.ar    
   6 C6             0.0351    -0.1881     1.0365 C.ar    
   7 Cl7           -1.7286     1.6702     0.1612 Cl      
   8 F8             0.8144     3.0551    -0.3978 F       
   9 C9             3.4543     2.1822     0.0578 C.3     
  10 H10            4.3191     1.5430    -0.1200 H       
  11 C11            3.1668     3.0538    -1.1834 C.3     
  12 H12            2.1696     2.8666    -1.5817 H       
  13 C13            3.3192     4.5183    -0.6888 C.3     
  14 H14            2.3643     5.0091    -0.5004 H       
  15 C15            4.1329     5.1909    -1.8224 C.3     
  16 C16            5.0559     4.0372    -2.2848 C.3     
  17 H17            5.9197     3.9545    -1.6253 H       
  18 N18            4.2074     2.8104    -2.1967 N.3     
  19 C19            5.5019     4.2596    -3.7070 C.ar    
  20 C20            4.6516     3.9457    -4.7525 C.ar    
  21 C21            5.0535     4.1467    -6.0567 C.ar    
  22 C22            6.3215     4.6683    -6.3205 C.ar    
  23 C23            7.1745     4.9828    -5.2608 C.ar    
  24 C24            6.7577     4.7820    -3.9612 C.ar    
  25 C25            6.7590     4.8858    -7.7147 C.2     
  26 O26            6.0149     4.6108    -8.6346 O.2     
  27 O27            7.9830     5.3891    -7.9658 O.3     
  28 N28            4.1702     4.4200     0.5249 N.3     
  29 C29            3.7512     3.1801     1.1838 C.3     
  30 C30            4.8024     2.6736     2.1300 C.ar    
  31 C31            6.1175     2.2963     1.9722 C.ar    
  32 C32            6.8476     1.8590     3.0627 C.ar    
  33 C33            6.2541     1.8033     4.3118 C.ar    
  34 C34            4.9366     2.1820     4.4744 C.ar    
  35 C35            4.1944     2.6219     3.3810 C.ar    
  36 N36            2.8688     3.0525     3.2920 N.am    
  37 C37            2.5293     3.3953     2.0342 C.2     
  38 O38            1.4495     3.8022     1.6608 O.2     
  39 Cl39           7.1708     1.2553     5.6804 Cl      
  40 C40            3.9784     5.5856     1.3981 C.3     
  41 C41            4.5003     6.8406     0.6955 C.3     
  42 C42            3.4759     7.9052     0.2979 C.3     
  43 C43            4.4316     8.1612     1.4649 C.3     
@<TRIPOS>BOND
   1    1    6 ar
   2    1    2 ar
   3    2    3 ar
   4    3    4 ar
   5    3    9 1
   6    4    5 ar
   7    4    8 1
   8    5    6 ar
   9    5    7 1
  10    9   10 1
  11    9   29 1
  12    9   11 1
  13   11   12 1
  14   11   18 1
  15   11   13 1
  16   13   14 1
  17   13   15 1
  18   13   28 1
  19   15   16 1
  20   16   17 1
  21   16   18 1
  22   16   19 1
  23   19   24 ar
  24   19   20 ar
  25   20   21 ar
  26   21   22 ar
  27   22   23 ar
  28   22   25 1
  29   23   24 ar
  30   25   26 2
  31   25   27 1
  32   28   29 1
  33   28   40 1
  34   29   37 1
  35   29   30 1
  36   30   35 ar
  37   30   31 ar
  38   31   32 ar
  39   32   33 ar
  40   33   34 ar
  41   33   39 1
  42   34   35 ar
  43   35   36 1
  44   36   37 am
  45   37   38 2
  46   40   41 1
  47   41   43 1
  48   41   42 1
  49   42   43 1





