#       Name:                6TG
#       Creating user name   gbret
#       Creation time:       Fri Sep  9 02:29:16 2016


#       File generated by GOLD software.
#

@<TRIPOS>MOLECULE
6TG
    53    56     1
SMALL
NO_CHARGES


@<TRIPOS>ATOM
      1 C1          -1.4838   4.2159   3.7604 C.3            1 <1>                0.0000
      2 O2          -1.4644   2.7870   3.7525 O.3            1 <1>                0.0000
      3 C3          -0.8607   2.1840   2.6948 C.ar           1 <1>                0.0000
      4 C4          -1.5963   1.8699   1.5613 C.ar           1 <1>                0.0000
      5 C5          -3.0661   2.1972   1.5014 C.3            1 <1>                0.0000
      6 C6          -0.9802   1.2574   0.4872 C.ar           1 <1>                0.0000
      7 C7           0.3683   0.9569   0.5415 C.ar           1 <1>                0.0000
      8 C8           1.1036   1.2684   1.6702 C.ar           1 <1>                0.0000
      9 C9           0.4934   1.8866   2.7445 C.ar           1 <1>                0.0000
     10 C10          1.2954   2.2259   3.9745 C.3            1 <1>                0.0000
     11 C11          1.0378   0.2882  -0.6315 C.3            1 <1>                0.0000
     12 N12          0.4120   0.7240  -1.8859 N.2            1 <1>                0.0000
     13 C13          1.3215   1.3038  -2.5911 C.2            1 <1>                0.0000
     14 C14          1.1086   1.9028  -3.9574 C.3            1 <1>                0.0000
     15 C15          2.6043   1.2928  -1.8586 C.2            1 <1>                0.0000
     16 N16          3.7885   1.8280  -2.3197 N.pl3          1 <1>                0.0000
     17 N17          2.4448   0.7006  -0.7125 N.pl3          1 <1>                0.0000
     18 H18          3.1269   0.5579  -0.0378 H              1 <1>                0.0000
     19 C19          0.9436  -1.2098  -0.4966 C.ar           1 <1>                0.0000
     20 C20          1.9359  -1.9068   0.1693 C.ar           1 <1>                0.0000
     21 C21          1.8558  -3.2816   0.2967 C.ar           1 <1>                0.0000
     22 C22          0.7837  -3.9658  -0.2401 C.ar           1 <1>                0.0000
     23 C23         -0.2186  -3.2688  -0.9113 C.ar           1 <1>                0.0000
     24 C24         -0.1352  -1.8831  -1.0326 C.ar           1 <1>                0.0000
     25 C25         -1.3734  -3.9989  -1.4905 C.ar           1 <1>                0.0000
     26 C26         -2.3849  -3.3174  -2.1719 C.ar           1 <1>                0.0000
     27 N27         -3.3957  -4.0066  -2.6728 N.ar           1 <1>                0.0000
     28 C28         -3.4568  -5.3164  -2.5365 C.ar           1 <1>                0.0000
     29 N29         -2.5242  -5.9976  -1.9008 N.ar           1 <1>                0.0000
     30 C30         -1.4762  -5.3873  -1.3745 C.ar           1 <1>                0.0000
     31 H31         -0.4612   4.5932   3.7526 H              1 <1>                0.0000
     32 H32         -2.0110   4.5770   2.8773 H              1 <1>                0.0000
     33 H33         -1.9940   4.5674   4.6572 H              1 <1>                0.0000
     34 H34         -3.1992   3.1970   1.0883 H              1 <1>                0.0000
     35 H35         -3.5745   1.4712   0.8669 H              1 <1>                0.0000
     36 H36         -3.4878   2.1600   2.5059 H              1 <1>                0.0000
     37 H37         -1.5524   1.0127  -0.3955 H              1 <1>                0.0000
     38 H38          2.1567   1.0324   1.7103 H              1 <1>                0.0000
     39 H39          1.7144   3.2268   3.8703 H              1 <1>                0.0000
     40 H40          0.6482   2.1924   4.8509 H              1 <1>                0.0000
     41 H41          2.1036   1.5041   4.0918 H              1 <1>                0.0000
     42 H42          0.0685   1.7689  -4.2547 H              1 <1>                0.0000
     43 H43          1.3441   2.9667  -3.9284 H              1 <1>                0.0000
     44 H44          1.7592   1.4061  -4.6773 H              1 <1>                0.0000
     45 H45          3.8216   2.2538  -3.1906 H              1 <1>                0.0000
     46 H46          4.5883   1.7786  -1.7732 H              1 <1>                0.0000
     47 H47          2.7763  -1.3755   0.5908 H              1 <1>                0.0000
     48 H48          2.6335  -3.8209   0.8169 H              1 <1>                0.0000
     49 H49          0.7223  -5.0394  -0.1403 H              1 <1>                0.0000
     50 H50         -0.9095  -1.3379  -1.5519 H              1 <1>                0.0000
     51 H51         -2.3419  -2.2445  -2.2872 H              1 <1>                0.0000
     52 H52         -4.2970  -5.8478  -2.9583 H              1 <1>                0.0000
     53 H53         -0.7162  -5.9521  -0.8552 H              1 <1>                0.0000
@<TRIPOS>BOND
    1    1    2 1     
    2    1   31 1     
    3    1   32 1     
    4    1   33 1     
    5    2    3 1     
    6    3    9 ar    
    7    3    4 ar    
    8    4    5 1     
    9    4    6 ar    
   10    5   34 1     
   11    5   35 1     
   12    5   36 1     
   13    6    7 ar    
   14    6   37 1     
   15    7    8 ar    
   16    7   11 1     
   17    8    9 ar    
   18    8   38 1     
   19    9   10 1     
   20   10   39 1     
   21   10   40 1     
   22   10   41 1     
   23   11   17 1     
   24   11   12 1     
   25   11   19 1     
   26   12   13 2     
   27   13   14 1     
   28   13   15 1     
   29   14   42 1     
   30   14   43 1     
   31   14   44 1     
   32   15   16 2     
   33   15   17 1     
   34   16   45 1     
   35   16   46 1     
   36   17   18 1     
   37   19   24 ar    
   38   19   20 ar    
   39   20   21 ar    
   40   20   47 1     
   41   21   22 ar    
   42   21   48 1     
   43   22   23 ar    
   44   22   49 1     
   45   23   24 ar    
   46   23   25 1     
   47   24   50 1     
   48   25   30 ar    
   49   25   26 ar    
   50   26   27 ar    
   51   26   51 1     
   52   27   28 ar    
   53   28   29 ar    
   54   28   52 1     
   55   29   30 ar    
   56   30   53 1     
@<TRIPOS>SUBSTRUCTURE
      1 ****           1
@<TRIPOS>SET
DONOR_HYDROGENS      STATIC     ATOMS    <user>   **** ""
3 45 46 18
ATOM$RED        STATIC     ATOMS    COLORGROUP SYSTEM
3 45 46 18
