#       Name:                6TT
#       Creating user name   gbret
#       Creation time:       Fri Sep  9 02:29:24 2016


#       File generated by GOLD software.
#

@<TRIPOS>MOLECULE
6TT
    50    52     1
SMALL
NO_CHARGES


@<TRIPOS>ATOM
      1 C1           3.2867   7.0925   1.1570 C.3            1 <1>                0.0000
      2 C2           3.1005   5.5766   1.2478 C.3            1 <1>                0.0000
      3 C3           1.8098   5.1878   0.5740 C.2            1 <1>                0.0000
      4 O4           1.1079   6.0394   0.0706 O.2            1 <1>                0.0000
      5 N5           1.4354   3.8938   0.5307 N.am           1 <1>                0.0000
      6 C6           0.1815   3.5443   0.0123 C.ar           1 <1>                0.0000
      7 C7          -0.8557   4.4648   0.0208 C.ar           1 <1>                0.0000
      8 C8          -2.0919   4.1180  -0.4911 C.ar           1 <1>                0.0000
      9 C9          -2.2991   2.8540  -1.0127 C.ar           1 <1>                0.0000
     10 C10         -1.2712   1.9303  -1.0257 C.ar           1 <1>                0.0000
     11 C11         -0.0257   2.2715  -0.5189 C.ar           1 <1>                0.0000
     12 N12          1.0170   1.3377  -0.5310 N.pl3          1 <1>                0.0000
     13 C13          0.7323  -0.0186  -0.5486 C.ar           1 <1>                0.0000
     14 N14         -0.5223  -0.4459  -0.4450 N.ar           1 <1>                0.0000
     15 C15         -0.7971  -1.7413  -0.4615 C.ar           1 <1>                0.0000
     16 N16         -2.1150  -2.1535  -0.3521 N.pl3          1 <1>                0.0000
     17 C17         -2.4159  -3.5157  -0.2557 C.ar           1 <1>                0.0000
     18 C18         -3.5680  -4.0259  -0.8416 C.ar           1 <1>                0.0000
     19 N19         -3.8576  -5.3085  -0.7547 N.ar           1 <1>                0.0000
     20 C20         -3.0764  -6.1564  -0.1152 C.ar           1 <1>                0.0000
     21 C21         -1.9080  -5.7248   0.4964 C.ar           1 <1>                0.0000
     22 O22         -1.1088  -6.6062   1.1535 O.3            1 <1>                0.0000
     23 C23         -1.5309  -7.9712   1.1780 C.3            1 <1>                0.0000
     24 C24         -1.5627  -4.3804   0.4234 C.ar           1 <1>                0.0000
     25 N25          0.1571  -2.6530  -0.5805 N.ar           1 <1>                0.0000
     26 C26          1.4288  -2.2978  -0.6880 C.ar           1 <1>                0.0000
     27 C27          1.7587  -0.9563  -0.6810 C.ar           1 <1>                0.0000
     28 C28          3.1947  -0.5152  -0.8017 C.3            1 <1>                0.0000
     29 F29          4.0204  -1.6394  -0.9097 F              1 <1>                0.0000
     30 F30          3.3430   0.2834  -1.9408 F              1 <1>                0.0000
     31 F31          3.5537   0.2198   0.3332 F              1 <1>                0.0000
     32 H32          4.2202   7.3737   1.6443 H              1 <1>                0.0000
     33 H33          3.3189   7.3925   0.1096 H              1 <1>                0.0000
     34 H34          2.4536   7.5912   1.6523 H              1 <1>                0.0000
     35 H35          3.9335   5.0778   0.7524 H              1 <1>                0.0000
     36 H36          3.0683   5.2766   2.2952 H              1 <1>                0.0000
     37 H37          2.0340   3.2044   0.8584 H              1 <1>                0.0000
     38 H38         -0.6977   5.4527   0.4277 H              1 <1>                0.0000
     39 H39         -2.8986   4.8360  -0.4834 H              1 <1>                0.0000
     40 H40         -3.2671   2.5879  -1.4108 H              1 <1>                0.0000
     41 H41         -1.4364   0.9441  -1.4339 H              1 <1>                0.0000
     42 H42          1.9387   1.6399  -0.5270 H              1 <1>                0.0000
     43 H43         -2.8292  -1.4972  -0.3422 H              1 <1>                0.0000
     44 H44         -4.2341  -3.3633  -1.3742 H              1 <1>                0.0000
     45 H45         -3.3495  -7.2002  -0.0664 H              1 <1>                0.0000
     46 H46         -1.6045  -8.3471   0.1575 H              1 <1>                0.0000
     47 H47         -0.8054  -8.5660   1.7328 H              1 <1>                0.0000
     48 H48         -2.5049  -8.0417   1.6622 H              1 <1>                0.0000
     49 H49         -0.6597  -4.0145   0.8893 H              1 <1>                0.0000
     50 H50          2.1990  -3.0487  -0.7842 H              1 <1>                0.0000
@<TRIPOS>BOND
    1    1    2 1     
    2    1   32 1     
    3    1   33 1     
    4    1   34 1     
    5    2    3 1     
    6    2   35 1     
    7    2   36 1     
    8    3    4 2     
    9    3    5 am    
   10    5    6 1     
   11    5   37 1     
   12    6   11 ar    
   13    6    7 ar    
   14    7    8 ar    
   15    7   38 1     
   16    8    9 ar    
   17    8   39 1     
   18    9   10 ar    
   19    9   40 1     
   20   10   11 ar    
   21   10   41 1     
   22   11   12 1     
   23   12   13 1     
   24   12   42 1     
   25   13   27 ar    
   26   13   14 ar    
   27   14   15 ar    
   28   15   16 1     
   29   15   25 ar    
   30   16   17 1     
   31   16   43 1     
   32   17   24 ar    
   33   17   18 ar    
   34   18   19 ar    
   35   18   44 1     
   36   19   20 ar    
   37   20   21 ar    
   38   20   45 1     
   39   21   22 1     
   40   21   24 ar    
   41   22   23 1     
   42   23   46 1     
   43   23   47 1     
   44   23   48 1     
   45   24   49 1     
   46   25   26 ar    
   47   26   27 ar    
   48   26   50 1     
   49   27   28 1     
   50   28   29 1     
   51   28   30 1     
   52   28   31 1     
@<TRIPOS>SUBSTRUCTURE
      1 ****           1
@<TRIPOS>SET
DONOR_HYDROGENS      STATIC     ATOMS    <user>   **** ""
3 37 42 43
ATOM$RED        STATIC     ATOMS    COLORGROUP SYSTEM
3 37 42 43
