#	Name:			6U2
#	Creating user name:	drognan
#	Creation time:		Wed Sep  5 12:09:46 2018


#	Modifying user name:	drognan
#	Modification time:	Wed Sep  5 12:09:46 2018

@<TRIPOS>MOLECULE
6U2
  36   40    0    0    0
SMALL
NO_CHARGES


@<TRIPOS>ATOM
   1 C1            -0.0178     1.4648     0.0101 C.3     
   2 N2             0.0021    -0.0041     0.0020 N.3     
   3 C3             0.6031    -0.5158    -1.2375 C.3     
   4 C4             0.5329    -2.0447    -1.2421 C.3     
   5 N5             1.2373    -2.5683    -0.0634 N.3     
   6 C6             0.6362    -2.0566     1.1762 C.3     
   7 C7             0.7064    -0.5277     1.1807 C.3     
   8 C8             1.2572    -4.0372    -0.0715 C.3     
   9 C9             2.2017    -4.5404     1.0219 C.3     
  10 C10            2.2225    -6.0703     1.0135 C.3     
  11 O11            3.1047    -6.5403     2.0347 O.3     
  12 C12            3.2387    -7.8866     2.1626 C.ar    
  13 C13            2.5399    -8.7378     1.3186 C.ar    
  14 C14            2.6782   -10.1058     1.4503 C.ar    
  15 C15            3.5122   -10.6272     2.4223 C.ar    
  16 C16            4.2093    -9.7812     3.2647 C.ar    
  17 C17            4.0788    -8.4120     3.1333 C.ar    
  18 C18            5.1170   -10.3529     4.3232 C.3     
  19 C19            6.5036   -10.5222     3.7578 C.2     
  20 O20            6.7322   -10.2095     2.6085 O.2     
  21 N21            7.4896   -11.0212     4.5294 N.am    
  22 C22            8.7681   -11.1773     4.0081 C.2     
  23 N23            9.7800   -11.6507     4.6625 N.2     
  24 C24           10.9325   -11.7320     4.0098 C.2     
  25 C25           10.8758   -11.3004     2.7359 C.2     
  26 S26            9.2252   -10.7786     2.4102 S.3     
  27 C27           12.1755   -12.2525     4.6302 C.2     
  28 C28           13.3893   -12.3631     4.0403 C.2     
  29 N29           14.2893   -12.8856     4.9300 N.pl3   
  30 H30           15.2242   -13.0575     4.7369 H       
  31 C31           13.6776   -13.1316     6.1365 C.ar    
  32 C32           12.3314   -12.7430     6.0075 C.ar    
  33 C33           11.4679   -12.8846     7.0936 C.ar    
  34 C34           11.9791   -13.4083     8.2671 C.ar    
  35 C35           13.3157   -13.7705     8.3245 C.ar    
  36 N36           14.1141   -13.6241     7.2885 N.ar    
@<TRIPOS>BOND
   1    1    2 1
   2    2    7 1
   3    2    3 1
   4    3    4 1
   5    4    5 1
   6    5    6 1
   7    5    8 1
   8    6    7 1
   9    8    9 1
  10    9   10 1
  11   10   11 1
  12   11   12 1
  13   12   17 ar
  14   12   13 ar
  15   13   14 ar
  16   14   15 ar
  17   15   16 ar
  18   16   17 ar
  19   16   18 1
  20   18   19 1
  21   19   20 2
  22   19   21 am
  23   21   22 1
  24   22   26 1
  25   22   23 2
  26   23   24 1
  27   24   25 2
  28   24   27 1
  29   25   26 1
  30   27   32 1
  31   27   28 2
  32   28   29 1
  33   29   30 1
  34   29   31 1
  35   31   36 ar
  36   31   32 ar
  37   32   33 ar
  38   33   34 ar
  39   34   35 ar
  40   35   36 ar





