#	Name:			6VU
#	Creating user name:	drognan
#	Creation time:		Wed Sep  5 12:09:46 2018


#	Modifying user name:	drognan
#	Modification time:	Wed Sep  5 12:09:46 2018

@<TRIPOS>MOLECULE
6VU
  38   41    0    0    0
SMALL
NO_CHARGES


@<TRIPOS>ATOM
   1 C1            -0.0795     1.0153     0.0339 C.3     
   2 C2            -0.0679    -0.4884     0.3164 C.3     
   3 C3             0.6733    -0.7552     1.6279 C.3     
   4 C4            -1.5064    -0.9968     0.4310 C.3     
   5 N5            -1.5008    -2.4578     0.5387 N.am    
   6 C6            -1.5450    -3.0953     1.8570 C.3     
   7 H7            -1.4770    -2.3324     2.6326 H       
   8 C8            -2.8607    -3.8635     2.0095 C.3     
   9 C9            -2.8728    -4.5755     3.3650 C.3     
  10 H10           -2.8253    -3.8364     4.1647 H       
  11 C11           -1.6618    -5.5067     3.4574 C.3     
  12 N12           -0.4284    -4.7242     3.3063 N.3     
  13 C13           -0.3720    -4.0686     1.9934 C.3     
  14 C14           -4.1393    -5.3811     3.4989 C.2     
  15 O15           -4.6436    -5.8857     2.5181 O.2     
  16 N16           -4.7115    -5.5410     4.7087 N.am    
  17 C17           -4.1802    -4.8514     5.8950 C.3     
  18 C18           -3.9882    -5.8857     7.0100 C.3     
  19 O19           -5.2050    -6.6142     7.1909 O.3     
  20 C20           -5.6113    -7.3683     6.0464 C.3     
  21 C21           -5.8898    -6.4055     4.8810 C.3     
  22 C22           -1.4550    -3.2155    -0.5750 C.2     
  23 O23           -1.5434    -4.4248    -0.4914 O.2     
  24 C24           -1.2970    -2.5752    -1.8993 C.2     
  25 N25           -1.0864    -1.2987    -2.0985 N.2     
  26 C26           -0.9912    -1.0538    -3.4174 C.ar    
  27 C27           -0.7749     0.1102    -4.1677 C.ar    
  28 C28           -0.7275     0.0420    -5.5292 C.ar    
  29 C29           -0.8916    -1.1715    -6.1858 C.ar    
  30 C30           -1.1055    -2.3298    -5.4720 C.ar    
  31 C31           -1.1575    -2.2839    -4.0839 C.ar    
  32 N32           -1.3432    -3.2297    -3.1022 N.pl3   
  33 C33           -1.5532    -4.6654    -3.3049 C.3     
  34 C34           -0.2015    -5.3821    -3.3150 C.3     
  35 C35           -0.4208    -6.8814    -3.5267 C.3     
  36 C36            0.9309    -7.5981    -3.5367 C.3     
  37 O37            0.7261    -8.9985    -3.7344 O.3     
  38 C38            1.9322    -9.7644    -3.7601 C.3     
@<TRIPOS>BOND
   1    1    2 1
   2    2    3 1
   3    2    4 1
   4    4    5 1
   5    5    6 1
   6    5   22 am
   7    6    7 1
   8    6   13 1
   9    6    8 1
  10    8    9 1
  11    9   10 1
  12    9   11 1
  13    9   14 1
  14   11   12 1
  15   12   13 1
  16   14   15 2
  17   14   16 am
  18   16   21 1
  19   16   17 1
  20   17   18 1
  21   18   19 1
  22   19   20 1
  23   20   21 1
  24   22   23 2
  25   22   24 1
  26   24   32 1
  27   24   25 2
  28   25   26 1
  29   26   31 ar
  30   26   27 ar
  31   27   28 ar
  32   28   29 ar
  33   29   30 ar
  34   30   31 ar
  35   31   32 1
  36   32   33 1
  37   33   34 1
  38   34   35 1
  39   35   36 1
  40   36   37 1
  41   37   38 1





