#       Name:                706
#       Creating user name   gbret
#       Creation time:       Fri Sep  9 02:31:37 2016


#       File generated by GOLD software.
#

@<TRIPOS>MOLECULE
706
    51    54     1
SMALL
NO_CHARGES


@<TRIPOS>ATOM
      1 C1          -2.1984   2.5996  -4.3520 C.3            1 <1>                0.0000
      2 C2          -1.6009   1.2495  -4.7532 C.3            1 <1>                0.0000
      3 C3          -2.6874   0.3334  -5.3199 C.3            1 <1>                0.0000
      4 C4          -0.4725   1.4457  -5.7788 C.3            1 <1>                0.0000
      5 N5           0.7300   0.9117  -5.1339 N.pl3          1 <1>                0.0000
      6 C6           0.4187   0.4336  -3.8599 C.ar           1 <1>                0.0000
      7 C7           1.2542  -0.1531  -2.9085 C.ar           1 <1>                0.0000
      8 C8           0.7417  -0.5643  -1.6895 C.ar           1 <1>                0.0000
      9 N9           1.5840  -1.1513  -0.7399 N.am           1 <1>                0.0000
     10 C10          1.3811  -0.9241   0.5729 C.2            1 <1>                0.0000
     11 O11          0.4184  -0.2760   0.9362 O.2            1 <1>                0.0000
     12 C12          2.3262  -1.4612   1.5685 C.ar           1 <1>                0.0000
     13 C13          3.4972  -2.1113   1.1615 C.ar           1 <1>                0.0000
     14 C14          4.3516  -2.5969   2.1350 C.ar           1 <1>                0.0000
     15 C15          4.0292  -2.4289   3.4702 C.ar           1 <1>                0.0000
     16 N16          2.9210  -1.8140   3.8336 N.ar           1 <1>                0.0000
     17 C17          2.0710  -1.3248   2.9437 C.ar           1 <1>                0.0000
     18 N18          0.9207  -0.6867   3.3698 N.pl3          1 <1>                0.0000
     19 C19          0.5921  -0.6446   4.7968 C.3            1 <1>                0.0000
     20 C20         -0.7014   0.1033   4.9926 C.ar           1 <1>                0.0000
     21 C21         -0.7049   1.4759   5.1886 C.ar           1 <1>                0.0000
     22 C22         -1.9107   2.1279   5.3647 C.ar           1 <1>                0.0000
     23 N23         -3.0475   1.4599   5.3483 N.ar           1 <1>                0.0000
     24 C24         -3.0821   0.1545   5.1645 C.ar           1 <1>                0.0000
     25 C25         -1.9167  -0.5639   4.9754 C.ar           1 <1>                0.0000
     26 C26         -0.6085  -0.3940  -1.4086 C.ar           1 <1>                0.0000
     27 C27         -1.4365   0.1861  -2.3493 C.ar           1 <1>                0.0000
     28 C28         -0.9267   0.5973  -3.5668 C.ar           1 <1>                0.0000
     29 H29         -1.4058   3.2546  -3.9901 H              1 <1>                0.0000
     30 H30         -2.6796   3.0555  -5.2172 H              1 <1>                0.0000
     31 H31         -2.9354   2.4507  -3.5628 H              1 <1>                0.0000
     32 H32         -3.1423   0.8050  -6.1910 H              1 <1>                0.0000
     33 H33         -2.2440  -0.6185  -5.6121 H              1 <1>                0.0000
     34 H34         -3.4499   0.1611  -4.5604 H              1 <1>                0.0000
     35 H35         -0.6902   0.8909  -6.6914 H              1 <1>                0.0000
     36 H36         -0.3435   2.5050  -6.0010 H              1 <1>                0.0000
     37 H37          1.6133   0.8926  -5.5341 H              1 <1>                0.0000
     38 H38          2.3041  -0.2867  -3.1235 H              1 <1>                0.0000
     39 H39          2.3143  -1.7220  -1.0262 H              1 <1>                0.0000
     40 H40          3.7278  -2.2310   0.1132 H              1 <1>                0.0000
     41 H41          5.2632  -3.1038   1.8551 H              1 <1>                0.0000
     42 H42          4.6977  -2.8088   4.2287 H              1 <1>                0.0000
     43 H43          0.3313  -0.2670   2.7238 H              1 <1>                0.0000
     44 H44          0.4848  -1.6612   5.1751 H              1 <1>                0.0000
     45 H45          1.3906  -0.1377   5.3387 H              1 <1>                0.0000
     46 H46          0.2229   2.0285   5.2038 H              1 <1>                0.0000
     47 H47         -1.9220   3.1969   5.5180 H              1 <1>                0.0000
     48 H48         -4.0325  -0.3586   5.1576 H              1 <1>                0.0000
     49 H49         -1.9515  -1.6328   4.8250 H              1 <1>                0.0000
     50 H50         -1.0090  -0.7144  -0.4582 H              1 <1>                0.0000
     51 H51         -2.4862   0.3194  -2.1329 H              1 <1>                0.0000
@<TRIPOS>BOND
    1    1    2 1     
    2    1   29 1     
    3    1   30 1     
    4    1   31 1     
    5    2   28 1     
    6    2    3 1     
    7    2    4 1     
    8    3   32 1     
    9    3   33 1     
   10    3   34 1     
   11    4    5 1     
   12    4   35 1     
   13    4   36 1     
   14    5    6 1     
   15    5   37 1     
   16    6   28 ar    
   17    6    7 ar    
   18    7    8 ar    
   19    7   38 1     
   20    8    9 1     
   21    8   26 ar    
   22    9   10 am    
   23    9   39 1     
   24   10   11 2     
   25   10   12 1     
   26   12   17 ar    
   27   12   13 ar    
   28   13   14 ar    
   29   13   40 1     
   30   14   15 ar    
   31   14   41 1     
   32   15   16 ar    
   33   15   42 1     
   34   16   17 ar    
   35   17   18 1     
   36   18   19 1     
   37   18   43 1     
   38   19   20 1     
   39   19   44 1     
   40   19   45 1     
   41   20   25 ar    
   42   20   21 ar    
   43   21   22 ar    
   44   21   46 1     
   45   22   23 ar    
   46   22   47 1     
   47   23   24 ar    
   48   24   25 ar    
   49   24   48 1     
   50   25   49 1     
   51   26   27 ar    
   52   26   50 1     
   53   27   28 ar    
   54   27   51 1     
@<TRIPOS>SUBSTRUCTURE
      1 ****           1
@<TRIPOS>SET
DONOR_HYDROGENS      STATIC     ATOMS    <user>   **** ""
3 37 39 43
ATOM$RED        STATIC     ATOMS    COLORGROUP SYSTEM
3 37 39 43
