#       Name:                707
#       Creating user name   gbret
#       Creation time:       Fri Sep  9 02:31:42 2016


#       File generated by GOLD software.
#

@<TRIPOS>MOLECULE
707
    28    28     1
SMALL
NO_CHARGES


@<TRIPOS>ATOM
      1 C1           3.7064   4.0331  -0.0181 C.3            1 <1>                0.0000
      2 O2           3.7258   2.6042  -0.0260 O.3            1 <1>                0.0000
      3 C3           2.5250   1.9717  -0.0179 C.ar           1 <1>                0.0000
      4 C4           1.3503   2.7144  -0.0084 C.ar           1 <1>                0.0000
      5 C5           0.1300   2.0766   0.0002 C.ar           1 <1>                0.0000
      6 C6           0.0731   0.6803  -0.0010 C.ar           1 <1>                0.0000
      7 C7           1.2558  -0.0635  -0.0110 C.ar           1 <1>                0.0000
      8 C8           2.4731   0.5821  -0.0249 C.ar           1 <1>                0.0000
      9 Br9          4.0750  -0.4227  -0.0391 Br             1 <1>                0.0000
     10 C10         -1.2331  -0.0070   0.0088 C.2            1 <1>                0.0000
     11 O11         -2.2614   0.6418   0.0179 O.2            1 <1>                0.0000
     12 N12         -1.2860  -1.3537   0.0076 N.am           1 <1>                0.0000
     13 C13         -2.5825  -2.0359   0.0173 C.3            1 <1>                0.0000
     14 C14         -2.3621  -3.5499   0.0137 C.3            1 <1>                0.0000
     15 C15         -3.6958  -4.2516   0.0236 C.2            1 <1>                0.0000
     16 O16         -4.7269  -3.6011   0.0328 O.co2          1 <1>                0.0000
     17 O17         -3.7436  -5.4699   0.0226 O.co2          1 <1>                0.0000
     18 H18          4.7290   4.4104  -0.0259 H              1 <1>                0.0000
     19 H19          3.1792   4.3942  -0.9012 H              1 <1>                0.0000
     20 H20          3.1962   4.3846   0.8787 H              1 <1>                0.0000
     21 H21          1.3947   3.7935  -0.0075 H              1 <1>                0.0000
     22 H22         -0.7822   2.6548   0.0083 H              1 <1>                0.0000
     23 H23          1.2159  -1.1427  -0.0119 H              1 <1>                0.0000
     24 H24         -0.4657  -1.8713   0.0003 H              1 <1>                0.0000
     25 H25         -3.1360  -1.7514   0.9121 H              1 <1>                0.0000
     26 H26         -3.1505  -1.7493  -0.8678 H              1 <1>                0.0000
     27 H27         -1.8086  -3.8344  -0.8811 H              1 <1>                0.0000
     28 H28         -1.7942  -3.8365   0.8988 H              1 <1>                0.0000
@<TRIPOS>BOND
    1    1    2 1     
    2    1   18 1     
    3    1   19 1     
    4    1   20 1     
    5    2    3 1     
    6    3    8 ar    
    7    3    4 ar    
    8    4    5 ar    
    9    4   21 1     
   10    5    6 ar    
   11    5   22 1     
   12    6    7 ar    
   13    6   10 1     
   14    7    8 ar    
   15    7   23 1     
   16    8    9 1     
   17   10   11 2     
   18   10   12 am    
   19   12   13 1     
   20   12   24 1     
   21   13   14 1     
   22   13   25 1     
   23   13   26 1     
   24   14   15 1     
   25   14   27 1     
   26   14   28 1     
   27   15   16 ar    
   28   15   17 ar    
@<TRIPOS>SUBSTRUCTURE
      1 ****           1
@<TRIPOS>SET
DONOR_HYDROGENS      STATIC     ATOMS    <user>   **** ""
1 24
ATOM$RED        STATIC     ATOMS    COLORGROUP SYSTEM
1 24
