#	Name:			73X
#	Creating user name:	drognan
#	Creation time:		Wed Sep  5 12:09:46 2018


#	Modifying user name:	drognan
#	Modification time:	Wed Sep  5 12:09:46 2018

@<TRIPOS>MOLECULE
73X
  22   24    0    0    0
SMALL
NO_CHARGES


@<TRIPOS>ATOM
   1 C1            -0.0168     1.3846     0.0097 C.ar    
   2 C2             1.1705     2.0907     0.0021 C.ar    
   3 C3             2.3782     1.4162    -0.0135 C.ar    
   4 C4             2.4005     0.0313    -0.0212 C.ar    
   5 C5             1.2155    -0.6798    -0.0132 C.ar    
   6 C6             0.0021    -0.0041     0.0020 C.ar    
   7 N7            -1.1978    -0.7203     0.0101 N.3     
   8 C8            -1.2477    -1.6513     1.1460 C.3     
   9 C9            -2.5383    -2.4708     1.0742 C.3     
  10 N10           -3.6937    -1.5628     1.0900 N.3     
  11 C11           -3.6437    -0.6318    -0.0460 C.3     
  12 C12           -2.3531     0.1877     0.0259 C.3     
  13 C13           -4.8992    -2.2824     1.0981 C.ar    
  14 C14           -5.2111    -3.1563     0.0689 C.ar    
  15 N15           -6.3586    -3.8197     0.1088 N.ar    
  16 C16           -7.2044    -3.6581     1.1140 C.ar    
  17 N17           -6.9459    -2.8330     2.1175 N.ar    
  18 C18           -5.8138    -2.1389     2.1500 C.ar    
  19 N19           -5.5464    -1.2757     3.2035 N.pl3   
  20 N20           -8.3936    -4.3717     1.1165 N.pl3   
  21 Cl21           3.9180    -0.8118    -0.0413 Cl      
  22 Cl22           3.8682     2.3070    -0.0241 Cl      
@<TRIPOS>BOND
   1    1    6 ar
   2    1    2 ar
   3    2    3 ar
   4    3    4 ar
   5    3   22 1
   6    4    5 ar
   7    4   21 1
   8    5    6 ar
   9    6    7 1
  10    7   12 1
  11    7    8 1
  12    8    9 1
  13    9   10 1
  14   10   11 1
  15   10   13 1
  16   11   12 1
  17   13   18 ar
  18   13   14 ar
  19   14   15 ar
  20   15   16 ar
  21   16   17 ar
  22   16   20 1
  23   17   18 ar
  24   18   19 1





