#       Name:                779
#       Creating user name   gbret
#       Creation time:       Fri Sep  9 02:37:10 2016


#       File generated by GOLD software.
#

@<TRIPOS>MOLECULE
779
    73    76     1
SMALL
NO_CHARGES


@<TRIPOS>ATOM
      1 C1          -0.7287   2.1942  -0.1678 C.3            1 <1>                0.0000
      2 N2          -0.7339   0.7327  -0.0662 N.am           1 <1>                0.0000
      3 C3          -0.8070  -0.1191  -1.1413 C.cat          1 <1>                0.0000
      4 N4          -0.8802   0.2678  -2.3821 N.pl3          1 <1>                0.0000
      5 H5          -0.8860   1.2140  -2.5956 H              1 <1>                0.0000
      6 H6          -0.9290  -0.3901  -3.0932 H              1 <1>                0.0000
      7 N7          -0.7924  -1.4316  -0.7379 N.pl3          1 <1>                0.0000
      8 C8          -0.7016  -1.4184   0.7312 C.3            1 <1>                0.0000
      9 C9          -1.9283  -2.0927   1.3486 C.3            1 <1>                0.0000
     10 C10         -3.1988  -1.4324   0.8095 C.3            1 <1>                0.0000
     11 C11         -4.4255  -2.1067   1.4270 C.3            1 <1>                0.0000
     12 C12         -4.4441  -1.8491   2.9350 C.3            1 <1>                0.0000
     13 C13         -5.6709  -2.5235   3.5525 C.3            1 <1>                0.0000
     14 C14         -6.9406  -1.9489   2.9213 C.3            1 <1>                0.0000
     15 C15         -6.9220  -2.2065   1.4132 C.3            1 <1>                0.0000
     16 C16         -5.6953  -1.5321   0.7958 C.3            1 <1>                0.0000
     17 C17          0.5795  -2.1152   1.1938 C.3            1 <1>                0.0000
     18 C18          1.7950  -1.3282   0.6997 C.3            1 <1>                0.0000
     19 C19          3.0619  -1.8823   1.3547 C.3            1 <1>                0.0000
     20 C20          4.2774  -1.0953   0.8607 C.3            1 <1>                0.0000
     21 C21          4.3886  -1.2297  -0.6593 C.3            1 <1>                0.0000
     22 C22          3.1218  -0.6757  -1.3143 C.3            1 <1>                0.0000
     23 C23          1.9062  -1.4626  -0.8203 C.3            1 <1>                0.0000
     24 N24          2.9662   0.7371  -0.9591 N.am           1 <1>                0.0000
     25 C25          3.5975   1.6862  -1.6780 C.2            1 <1>                0.0000
     26 O26          4.2963   1.3700  -2.6215 O.2            1 <1>                0.0000
     27 N27          3.4544   2.9859  -1.3512 N.am           1 <1>                0.0000
     28 C28          4.0319   3.9768  -2.1531 C.ar           1 <1>                0.0000
     29 C29          4.5265   5.1387  -1.5755 C.ar           1 <1>                0.0000
     30 C30          5.0964   6.1145  -2.3696 C.ar           1 <1>                0.0000
     31 C31          5.1747   5.9354  -3.7385 C.ar           1 <1>                0.0000
     32 C32          4.6826   4.7798  -4.3168 C.ar           1 <1>                0.0000
     33 C33          4.1168   3.7977  -3.5276 C.ar           1 <1>                0.0000
     34 C34         -0.6619   0.0511   1.0926 C.2            1 <1>                0.0000
     35 O35         -0.5869   0.5219   2.2075 O.2            1 <1>                0.0000
     36 H36          0.2979   2.5482  -0.2617 H              1 <1>                0.0000
     37 H37         -1.3000   2.4995  -1.0445 H              1 <1>                0.0000
     38 H38         -1.1802   2.6222   0.7271 H              1 <1>                0.0000
     39 H39         -0.8339  -2.2143  -1.3093 H              1 <1>                0.0000
     40 H40         -1.9306  -3.1512   1.0885 H              1 <1>                0.0000
     41 H41         -1.8949  -1.9851   2.4328 H              1 <1>                0.0000
     42 H42         -3.1966  -0.3739   1.0697 H              1 <1>                0.0000
     43 H43         -3.2322  -1.5399  -0.2747 H              1 <1>                0.0000
     44 H44         -4.3816  -3.1801   1.2422 H              1 <1>                0.0000
     45 H45         -3.5396  -2.2585   3.3847 H              1 <1>                0.0000
     46 H46         -4.4880  -0.7758   3.1198 H              1 <1>                0.0000
     47 H47         -5.6270  -3.5969   3.3678 H              1 <1>                0.0000
     48 H48         -5.6841  -2.3400   4.6269 H              1 <1>                0.0000
     49 H49         -7.8145  -2.4293   3.3612 H              1 <1>                0.0000
     50 H50         -6.9845  -0.8755   3.1060 H              1 <1>                0.0000
     51 H51         -6.8781  -3.2798   1.2285 H              1 <1>                0.0000
     52 H52         -7.8266  -1.7971   0.9635 H              1 <1>                0.0000
     53 H53         -5.7392  -0.4588   0.9805 H              1 <1>                0.0000
     54 H54         -5.6820  -1.7156  -0.2786 H              1 <1>                0.0000
     55 H55          0.5949  -2.1618   2.2827 H              1 <1>                0.0000
     56 H56          0.6109  -3.1257   0.7864 H              1 <1>                0.0000
     57 H57          1.6793  -0.2771   0.9641 H              1 <1>                0.0000
     58 H58          2.9827  -1.7865   2.4376 H              1 <1>                0.0000
     59 H59          3.1777  -2.9334   1.0904 H              1 <1>                0.0000
     60 H60          4.1616  -0.0442   1.1250 H              1 <1>                0.0000
     61 H61          5.1800  -1.4900   1.3274 H              1 <1>                0.0000
     62 H62          5.2546  -0.6690  -1.0112 H              1 <1>                0.0000
     63 H63          4.5044  -2.2808  -0.9236 H              1 <1>                0.0000
     64 H64          3.2010  -0.7714  -2.3972 H              1 <1>                0.0000
     65 H65          2.0220  -2.5137  -1.0846 H              1 <1>                0.0000
     66 H66          1.0037  -1.0679  -1.2869 H              1 <1>                0.0000
     67 H67          2.4087   0.9894  -0.2064 H              1 <1>                0.0000
     68 H68          2.9510   3.2345  -0.5602 H              1 <1>                0.0000
     69 H69          4.4654   5.2793  -0.5064 H              1 <1>                0.0000
     70 H70          5.4809   7.0185  -1.9209 H              1 <1>                0.0000
     71 H71          5.6207   6.7000  -4.3573 H              1 <1>                0.0000
     72 H72          4.7449   4.6430  -5.3863 H              1 <1>                0.0000
     73 H73          3.7330   2.8952  -3.9798 H              1 <1>                0.0000
@<TRIPOS>BOND
    1    1    2 1     
    2    1   36 1     
    3    1   37 1     
    4    1   38 1     
    5    2   34 am    
    6    2    3 ar    
    7    3    4 ar    
    8    3    7 ar    
    9    4    5 1     
   10    4    6 1     
   11    7    8 1     
   12    7   39 1     
   13    8    9 1     
   14    8   17 1     
   15    8   34 1     
   16    9   10 1     
   17    9   40 1     
   18    9   41 1     
   19   10   11 1     
   20   10   42 1     
   21   10   43 1     
   22   11   16 1     
   23   11   12 1     
   24   11   44 1     
   25   12   13 1     
   26   12   45 1     
   27   12   46 1     
   28   13   14 1     
   29   13   47 1     
   30   13   48 1     
   31   14   15 1     
   32   14   49 1     
   33   14   50 1     
   34   15   16 1     
   35   15   51 1     
   36   15   52 1     
   37   16   53 1     
   38   16   54 1     
   39   17   18 1     
   40   17   55 1     
   41   17   56 1     
   42   18   23 1     
   43   18   19 1     
   44   18   57 1     
   45   19   20 1     
   46   19   58 1     
   47   19   59 1     
   48   20   21 1     
   49   20   60 1     
   50   20   61 1     
   51   21   22 1     
   52   21   62 1     
   53   21   63 1     
   54   22   23 1     
   55   22   24 1     
   56   22   64 1     
   57   23   65 1     
   58   23   66 1     
   59   24   25 am    
   60   24   67 1     
   61   25   26 2     
   62   25   27 am    
   63   27   28 1     
   64   27   68 1     
   65   28   33 ar    
   66   28   29 ar    
   67   29   30 ar    
   68   29   69 1     
   69   30   31 ar    
   70   30   70 1     
   71   31   32 ar    
   72   31   71 1     
   73   32   33 ar    
   74   32   72 1     
   75   33   73 1     
   76   34   35 2     
@<TRIPOS>SUBSTRUCTURE
      1 ****           1
@<TRIPOS>SET
DONOR_HYDROGENS      STATIC     ATOMS    <user>   **** ""
5 5 6 39 67 68
ATOM$RED        STATIC     ATOMS    COLORGROUP SYSTEM
5 5 6 39 67 68
