#	Name:			79Q
#	Creating user name:	drognan
#	Creation time:		Wed Sep  5 12:09:46 2018


#	Modifying user name:	drognan
#	Modification time:	Wed Sep  5 12:09:46 2018

@<TRIPOS>MOLECULE
79Q
  44   49    0    0    0
SMALL
NO_CHARGES


@<TRIPOS>ATOM
   1 C1             8.2273    -7.4668     7.3065 C.ar    
   2 C2             9.1475    -6.4537     7.1032 C.ar    
   3 C3             8.9834    -5.5681     6.0583 C.ar    
   4 C4             7.8861    -5.6959     5.2050 C.ar    
   5 C5             6.9617    -6.7205     5.4154 C.ar    
   6 C6             7.1375    -7.5991     6.4643 C.ar    
   7 C7             7.7036    -4.7503     4.0837 C.2     
   8 O8             8.5101    -3.8587     3.9031 O.2     
   9 N9             6.6431    -4.8765     3.2615 N.am    
  10 C10            6.4220    -3.9301     2.2543 C.ar    
  11 C11            7.4981    -3.3359     1.6112 C.ar    
  12 C12            7.2748    -2.3978     0.6130 C.ar    
  13 C13            5.9752    -2.0560     0.2601 C.ar    
  14 C14            4.9045    -2.6484     0.9020 C.ar    
  15 C15            5.1230    -3.5883     1.8930 C.ar    
  16 F16            4.0741    -4.1662     2.5185 F       
  17 N17            8.3573    -1.7967    -0.0368 N.pl3   
  18 C18            9.5217    -2.5214    -0.2630 C.ar    
  19 C19            9.4723    -3.9113    -0.3489 C.ar    
  20 C20           10.6242    -4.6049    -0.5603 C.ar    
  21 C21           11.8569    -3.9362    -0.6992 C.ar    
  22 C22           11.9101    -2.5519    -0.6338 C.ar    
  23 C23           10.7310    -1.8621    -0.4090 C.ar    
  24 C24           13.1149    -1.6650    -0.8125 C.3     
  25 C25           14.3322    -2.3441    -1.3783 C.3     
  26 C26           14.9429    -3.3372    -0.4376 C.ar    
  27 C27           16.1519    -3.0553     0.1796 C.ar    
  28 C28           16.7054    -3.9698     1.0542 C.ar    
  29 C29           16.0564    -5.1775     1.3237 C.ar    
  30 C30           14.8414    -5.4636     0.6995 C.ar    
  31 C31           14.3043    -4.5303    -0.1829 C.ar    
  32 C32           13.0383    -4.7878    -0.8951 C.2     
  33 O33           12.9706    -5.7282    -1.6631 O.2     
  34 C34           16.6538    -6.1475     2.2663 C.2     
  35 O35           16.0868    -7.1972     2.4987 O.2     
  36 N36           17.8270    -5.8678     2.8677 N.am    
  37 C37           18.4189    -6.8289     3.8016 C.3     
  38 C38           19.7385    -6.2714     4.3391 C.3     
  39 N39           20.3320    -7.2352     5.2755 N.3     
  40 C40           20.7372    -8.4650     4.5794 C.3     
  41 C41           21.2940    -9.4622     5.5989 C.3     
  42 O42           22.3801    -8.8572     6.3058 O.3     
  43 C43           22.0207    -7.6573     6.9960 C.3     
  44 C44           21.4712    -6.6418     5.9906 C.3     
@<TRIPOS>BOND
   1    1    6 ar
   2    1    2 ar
   3    2    3 ar
   4    3    4 ar
   5    4    5 ar
   6    4    7 1
   7    5    6 ar
   8    7    8 2
   9    7    9 am
  10    9   10 1
  11   10   15 ar
  12   10   11 ar
  13   11   12 ar
  14   12   13 ar
  15   12   17 1
  16   13   14 ar
  17   14   15 ar
  18   15   16 1
  19   17   18 1
  20   18   23 ar
  21   18   19 ar
  22   19   20 ar
  23   20   21 ar
  24   21   32 1
  25   21   22 ar
  26   22   23 ar
  27   22   24 1
  28   24   25 1
  29   25   26 1
  30   26   31 ar
  31   26   27 ar
  32   27   28 ar
  33   28   29 ar
  34   29   30 ar
  35   29   34 1
  36   30   31 ar
  37   31   32 1
  38   32   33 2
  39   34   35 2
  40   34   36 am
  41   36   37 1
  42   37   38 1
  43   38   39 1
  44   39   44 1
  45   39   40 1
  46   40   41 1
  47   41   42 1
  48   42   43 1
  49   43   44 1





