#	Name:			7AX
#	Creating user name:	drognan
#	Creation time:		Wed Sep  5 12:09:46 2018


#	Modifying user name:	drognan
#	Modification time:	Wed Sep  5 12:09:46 2018

@<TRIPOS>MOLECULE
7AX
  30   33    0    0    0
SMALL
NO_CHARGES


@<TRIPOS>ATOM
   1 C1            -0.0021     1.2204    -0.8811 C.ar    
   2 C2             1.1807     1.9285    -0.9855 C.ar    
   3 C3             2.3857     1.3130    -0.7030 C.ar    
   4 C4             2.4099    -0.0171    -0.3140 C.ar    
   5 C5             1.2191    -0.7299    -0.2090 C.ar    
   6 C6             0.0148    -0.1065    -0.4937 C.ar    
   7 O7             1.2376    -2.0352     0.1719 O.3     
   8 C8            -0.0225    -2.7037     0.2581 C.3     
   9 C9             0.1979    -4.1525     0.6979 C.3     
  10 N10            0.7412    -4.1726     2.0583 N.am    
  11 C11            2.0961    -4.1420     2.2475 C.2     
  12 C12            2.5967    -4.1601     3.5013 C.2     
  13 C13            1.7039    -4.2106     4.5989 C.2     
  14 O14            2.1318    -4.2274     5.7389 O.2     
  15 N15            0.3754    -4.2395     4.3702 N.am    
  16 C16           -0.0968    -4.2154     3.1100 C.2     
  17 O17           -1.2973    -4.2415     2.9191 O.2     
  18 O18            3.5944    -0.6243    -0.0361 O.3     
  19 C19            4.7305     0.1123    -0.1480 C.ar    
  20 C20            5.2005     0.8290     0.9573 C.ar    
  21 C21            6.3345     1.5757     0.8761 C.ar    
  22 C22            7.0490     1.6316    -0.3329 C.ar    
  23 C23            8.2251     2.3957    -0.4440 C.ar    
  24 C24            8.9007     2.4361    -1.6205 C.ar    
  25 C25            8.4407     1.7208    -2.7415 C.ar    
  26 C26            7.2860     0.9593    -2.6639 C.ar    
  27 C27            6.5750     0.9055    -1.4553 C.ar    
  28 C28            5.4025     0.1393    -1.3370 C.ar    
  29 C29            9.1712     1.7808    -3.9716 C.1     
  30 N30            9.7508     1.8284    -4.9475 N.1     
@<TRIPOS>BOND
   1    1    6 ar
   2    1    2 ar
   3    2    3 ar
   4    3    4 ar
   5    4    5 ar
   6    4   18 1
   7    5    6 ar
   8    5    7 1
   9    7    8 1
  10    8    9 1
  11    9   10 1
  12   10   16 am
  13   10   11 1
  14   11   12 2
  15   12   13 1
  16   13   14 2
  17   13   15 am
  18   15   16 am
  19   16   17 2
  20   18   19 1
  21   19   28 ar
  22   19   20 ar
  23   20   21 ar
  24   21   22 ar
  25   22   27 ar
  26   22   23 ar
  27   23   24 ar
  28   24   25 ar
  29   25   26 ar
  30   25   29 1
  31   26   27 ar
  32   27   28 ar
  33   29   30 3





