#	Name:			7AY
#	Creating user name:	drognan
#	Creation time:		Wed Sep  5 12:09:46 2018


#	Modifying user name:	drognan
#	Modification time:	Wed Sep  5 12:09:46 2018

@<TRIPOS>MOLECULE
7AY
  32   35    0    0    0
SMALL
NO_CHARGES


@<TRIPOS>ATOM
   1 C1            -0.0846     1.8025     0.2368 C.3     
   2 C2             1.2086     1.3888     0.8906 C.ar    
   3 C3             2.4291     1.9237     0.4432 C.ar    
   4 C4             2.4713     2.8472    -0.6125 C.ar    
   5 C5             3.6928     3.3534    -1.0262 C.ar    
   6 C6             4.8837     2.9478    -0.3962 C.ar    
   7 C7             4.8610     2.0552     0.6261 C.ar    
   8 C8             3.6368     1.5233     1.0698 C.ar    
   9 C9             3.5909     0.5972     2.1274 C.ar    
  10 C10            2.3926     0.0981     2.5376 C.ar    
  11 C11            1.2003     0.4963     1.9249 C.ar    
  12 O12            0.0198    -0.0190     2.3566 O.3     
  13 C13            0.0377    -0.8271     3.4500 C.ar    
  14 C14            0.1147    -2.2024     3.2961 C.ar    
  15 C15            0.1328    -3.0223     4.4088 C.ar    
  16 C16            0.0743    -2.4738     5.6766 C.ar    
  17 C17           -0.0026    -1.1030     5.8373 C.ar    
  18 C18           -0.0154    -0.2748     4.7264 C.ar    
  19 O19           -0.0905     1.0740     4.8827 O.3     
  20 C20           -0.1536     1.5694     6.2216 C.3     
  21 C21           -0.2331     3.0971     6.1969 C.3     
  22 N22           -1.4915     3.5105     5.5711 N.am    
  23 C23           -1.5430     3.7068     4.2179 C.2     
  24 C24           -2.7030     4.0874     3.6411 C.2     
  25 C25           -3.8469     4.2761     4.4536 C.2     
  26 O26           -4.9043     4.6188     3.9562 O.2     
  27 N27           -3.7549     4.0724     5.7834 N.am    
  28 C28           -2.5871     3.6882     6.3315 C.2     
  29 O29           -2.5191     3.5079     7.5320 O.2     
  30 Cl30           5.0575     0.0919     2.9068 Cl      
  31 C31            3.7437     4.2958    -2.1032 C.1     
  32 N32            3.7840     5.0435    -2.9575 N.1     
@<TRIPOS>BOND
   1    1    2 1
   2    2   11 ar
   3    2    3 ar
   4    3    8 ar
   5    3    4 ar
   6    4    5 ar
   7    5    6 ar
   8    5   31 1
   9    6    7 ar
  10    7    8 ar
  11    8    9 ar
  12    9   10 ar
  13    9   30 1
  14   10   11 ar
  15   11   12 1
  16   12   13 1
  17   13   18 ar
  18   13   14 ar
  19   14   15 ar
  20   15   16 ar
  21   16   17 ar
  22   17   18 ar
  23   18   19 1
  24   19   20 1
  25   20   21 1
  26   21   22 1
  27   22   28 am
  28   22   23 1
  29   23   24 2
  30   24   25 1
  31   25   26 2
  32   25   27 am
  33   27   28 am
  34   28   29 2
  35   31   32 3





