#       Name:                7CK
#       Creating user name   gbret
#       Creation time:       Fri Sep  9 02:41:11 2016


#       File generated by GOLD software.
#

@<TRIPOS>MOLECULE
7CK
    39    44     1
SMALL
NO_CHARGES


@<TRIPOS>ATOM
      1 O1          -0.4188   3.3196  -2.0971 O.3            1 <1>                0.0000
      2 C2          -0.3246   1.9712  -2.1075 C.2            1 <1>                0.0000
      3 N3          -0.3541   1.1948  -3.2068 N.pl3          1 <1>                0.0000
      4 H4          -0.4467   1.5164  -4.1173 H              1 <1>                0.0000
      5 C5          -0.2309  -0.1380  -2.8356 C.2            1 <1>                0.0000
      6 C6          -0.2188  -1.2366  -3.6976 C.2            1 <1>                0.0000
      7 O7           0.9391  -1.6839  -4.1944 O.co2          1 <1>                0.0000
      8 O8          -1.3652  -1.8412  -4.0261 O.co2          1 <1>                0.0000
      9 C9          -0.1202  -0.1804  -1.4368 C.ar           1 <1>                0.0000
     10 C10         -0.1755   1.1639  -0.9843 C.ar           1 <1>                0.0000
     11 C11         -0.0825   1.4291   0.4524 C.ar           1 <1>                0.0000
     12 C12         -0.1052   2.6677   1.2442 C.ar           1 <1>                0.0000
     13 C13         -0.2218   4.0183   0.9133 C.ar           1 <1>                0.0000
     14 C14         -0.2093   4.9688   1.9093 C.ar           1 <1>                0.0000
     15 C15         -0.0809   4.5892   3.2379 C.ar           1 <1>                0.0000
     16 C16          0.0352   3.2598   3.5799 C.ar           1 <1>                0.0000
     17 C17          0.0244   2.2823   2.5889 C.ar           1 <1>                0.0000
     18 N18          0.1201   0.9068   2.6333 N.pl3          1 <1>                0.0000
     19 H19          0.2183   0.3833   3.4440 H              1 <1>                0.0000
     20 C20          0.0573   0.3804   1.3513 C.ar           1 <1>                0.0000
     21 C21          0.1118  -0.9566   0.8983 C.ar           1 <1>                0.0000
     22 N22          0.2444  -2.1426   1.5959 N.pl3          1 <1>                0.0000
     23 H23          0.3226  -2.2126   2.5602 H              1 <1>                0.0000
     24 C24          0.2490  -3.2138   0.7241 C.ar           1 <1>                0.0000
     25 C25          0.3550  -4.5873   0.9214 C.ar           1 <1>                0.0000
     26 C26          0.3285  -5.4429  -0.1586 C.ar           1 <1>                0.0000
     27 C27          0.1973  -4.9489  -1.4482 C.ar           1 <1>                0.0000
     28 C28          0.0914  -3.5927  -1.6651 C.ar           1 <1>                0.0000
     29 C29          0.1157  -2.7151  -0.5816 C.ar           1 <1>                0.0000
     30 C30          0.0309  -1.2507  -0.4602 C.ar           1 <1>                0.0000
     31 H31          0.4321   3.7739  -2.1661 H              1 <1>                0.0000
     32 H32         -0.3212   4.3168  -0.1199 H              1 <1>                0.0000
     33 H33         -0.2995   6.0147   1.6554 H              1 <1>                0.0000
     34 H34         -0.0715   5.3431   4.0111 H              1 <1>                0.0000
     35 H35          0.1346   2.9759   4.6171 H              1 <1>                0.0000
     36 H36          0.4583  -4.9828   1.9210 H              1 <1>                0.0000
     37 H37          0.4111  -6.5079   0.0004 H              1 <1>                0.0000
     38 H38          0.1783  -5.6305  -2.2858 H              1 <1>                0.0000
     39 H39         -0.0100  -3.2106  -2.6701 H              1 <1>                0.0000
@<TRIPOS>BOND
    1    1    2 1     
    2    1   31 1     
    3    2   10 2     
    4    2    3 1     
    5    3    4 1     
    6    3    5 1     
    7    5    6 1     
    8    5    9 2     
    9    6    7 ar    
   10    6    8 ar    
   11    9   30 ar    
   12    9   10 ar    
   13   10   11 ar    
   14   11   20 ar    
   15   11   12 1     
   16   12   17 ar    
   17   12   13 ar    
   18   13   14 ar    
   19   13   32 1     
   20   14   15 ar    
   21   14   33 1     
   22   15   16 ar    
   23   15   34 1     
   24   16   17 ar    
   25   16   35 1     
   26   17   18 1     
   27   18   19 1     
   28   18   20 1     
   29   20   21 ar    
   30   21   30 ar    
   31   21   22 1     
   32   22   23 1     
   33   22   24 1     
   34   24   29 ar    
   35   24   25 ar    
   36   25   26 ar    
   37   25   36 1     
   38   26   27 ar    
   39   26   37 1     
   40   27   28 ar    
   41   27   38 1     
   42   28   29 ar    
   43   28   39 1     
   44   29   30 1     
@<TRIPOS>SUBSTRUCTURE
      1 ****           1
@<TRIPOS>SET
DONOR_HYDROGENS      STATIC     ATOMS    <user>   **** ""
4 31 4 19 23
ATOM$RED        STATIC     ATOMS    COLORGROUP SYSTEM
4 31 4 19 23
