#	Name:			7HC
#	Creating user name:	drognan
#	Creation time:		Wed Sep  5 12:09:46 2018


#	Modifying user name:	drognan
#	Modification time:	Wed Sep  5 12:09:46 2018

@<TRIPOS>MOLECULE
7HC
  41   45    0    0    0
SMALL
NO_CHARGES


@<TRIPOS>ATOM
   1 C1            -0.2870    -0.5098    -0.4689 C.3     
   2 C2             0.3739    -1.8832    -0.6022 C.3     
   3 C3             1.1460    -2.2041     0.6791 C.3     
   4 C4            -0.7020    -2.9470    -0.8294 C.3     
   5 C5             1.3387    -1.8718    -1.7897 C.3     
   6 C6             2.4146    -0.8080    -1.5625 C.3     
   7 H7             2.9071    -0.9645    -0.6028 H       
   8 C8             3.4415    -0.8319    -2.7026 C.3     
   9 C9             4.6510    -1.6447    -2.3368 C.ar    
  10 C10            5.5850    -1.5535    -1.3289 C.ar    
  11 C11            6.6131    -2.4759    -1.2517 C.ar    
  12 C12            6.6999    -3.4904    -2.1895 C.ar    
  13 C13            5.7660    -3.5848    -3.2017 C.ar    
  14 C14            4.7286    -2.6593    -3.2864 C.ar    
  15 N15            3.6812    -2.5441    -4.2031 N.am    
  16 C16            2.8809    -1.4955    -3.9308 C.2     
  17 O17            1.8987    -1.1529    -4.5545 O.2     
  18 Cl18           7.9893    -4.6487    -2.0925 Cl      
  19 C19            3.8074     0.6323    -2.9736 C.3     
  20 H20            4.8713     0.7958    -2.8022 H       
  21 C21            2.9676     1.4410    -1.9580 C.3     
  22 H22            2.6142     2.3679    -2.4098 H       
  23 N23            1.8201     0.5545    -1.6258 N.3     
  24 C24            3.7783     1.7358    -0.7224 C.2     
  25 O25            3.6309     1.0615     0.2748 O.2     
  26 N26            4.6673     2.7489    -0.7255 N.am    
  27 C27            5.4555     3.0355     0.4757 C.3     
  28 C28            6.6965     2.1409     0.4968 C.3     
  29 C29            7.5196     2.4402     1.7513 C.3     
  30 C30            7.9495     3.9085     1.7409 C.3     
  31 C31            6.7085     4.8031     1.7198 C.3     
  32 C32            5.8853     4.5038     0.4653 C.3     
  33 O33            8.7183     4.1881     2.9126 O.3     
  34 C34            3.4392     1.0130    -4.3844 C.ar    
  35 C35            2.1349     1.3543    -4.6904 C.ar    
  36 C36            1.7962     1.7036    -5.9841 C.ar    
  37 C37            2.7611     1.7124    -6.9743 C.ar    
  38 C38            4.0665     1.3715    -6.6710 C.ar    
  39 C39            4.4078     1.0267    -5.3728 C.ar    
  40 F40            5.6828     0.6938    -5.0747 F       
  41 Cl41           5.2781     1.3819    -7.9142 Cl      
@<TRIPOS>BOND
   1    1    2 1
   2    2    3 1
   3    2    4 1
   4    2    5 1
   5    5    6 1
   6    6    7 1
   7    6   23 1
   8    6    8 1
   9    8   16 1
  10    8    9 1
  11    8   19 1
  12    9   14 ar
  13    9   10 ar
  14   10   11 ar
  15   11   12 ar
  16   12   13 ar
  17   12   18 1
  18   13   14 ar
  19   14   15 1
  20   15   16 am
  21   16   17 2
  22   19   20 1
  23   19   21 1
  24   19   34 1
  25   21   22 1
  26   21   23 1
  27   21   24 1
  28   24   25 2
  29   24   26 am
  30   26   27 1
  31   27   32 1
  32   27   28 1
  33   28   29 1
  34   29   30 1
  35   30   31 1
  36   30   33 1
  37   31   32 1
  38   34   39 ar
  39   34   35 ar
  40   35   36 ar
  41   36   37 ar
  42   37   38 ar
  43   38   39 ar
  44   38   41 1
  45   39   40 1





