#	Name:			7M7
#	Creating user name:	drognan
#	Creation time:		Wed Sep  5 12:09:46 2018


#	Modifying user name:	drognan
#	Modification time:	Wed Sep  5 12:09:46 2018

@<TRIPOS>MOLECULE
7M7
  31   34    0    0    0
SMALL
NO_CHARGES


@<TRIPOS>ATOM
   1 C1            -0.0168     1.3903     0.0097 C.ar    
   2 C2             1.1687     2.0944     0.0021 C.ar    
   3 C3             2.3804     1.4166    -0.0135 C.ar    
   4 C4             2.4027     0.0284    -0.0212 C.ar    
   5 C5             1.2207    -0.6817    -0.0133 C.ar    
   6 C6             0.0021    -0.0041     0.0020 C.ar    
   7 C7            -1.2702    -0.7641     0.0111 C.ar    
   8 C8            -1.4814    -1.7869    -0.9100 C.ar    
   9 C9            -2.6676    -2.4924    -0.8977 C.ar    
  10 C10           -3.6529    -2.1898     0.0270 C.ar    
  11 C11           -3.4600    -1.1792     0.9470 C.ar    
  12 C12           -2.2671    -0.4608     0.9521 C.ar    
  13 C13           -2.0553     0.6249     1.9385 C.ar    
  14 C14           -0.8843     0.6633     2.6947 C.ar    
  15 C15           -0.6901     1.6751     3.6112 C.ar    
  16 C16           -1.6591     2.6547     3.7818 C.ar    
  17 C17           -2.8263     2.6192     3.0307 C.ar    
  18 C18           -3.0240     1.6136     2.1081 C.ar    
  19 O19           -1.4649     3.6501     4.6860 O.3     
  20 S20           -5.1617    -3.0998     0.0288 S.o2    
  21 O21           -6.1335    -2.2641     0.6424 O.2     
  22 O22           -5.3101    -3.6332    -1.2799 O.2     
  23 O23           -4.9692    -4.2894     0.9585 O.3     
  24 C24           -4.9937    -3.9686     2.2791 C.ar    
  25 C25           -3.8194    -3.6232     2.9319 C.ar    
  26 C26           -3.8465    -3.2975     4.2741 C.ar    
  27 C27           -5.0436    -3.3157     4.9672 C.ar    
  28 C28           -6.2157    -3.6603     4.3182 C.ar    
  29 C29           -6.1940    -3.9806     2.9746 C.ar    
  30 Br30          -5.0777    -2.8694     6.8045 Br      
  31 O31            3.5468     2.1134    -0.0218 O.3     
@<TRIPOS>BOND
   1    1    6 ar
   2    1    2 ar
   3    2    3 ar
   4    3    4 ar
   5    3   31 1
   6    4    5 ar
   7    5    6 ar
   8    6    7 1
   9    7   12 ar
  10    7    8 ar
  11    8    9 ar
  12    9   10 ar
  13   10   11 ar
  14   10   20 1
  15   11   12 ar
  16   12   13 1
  17   13   18 ar
  18   13   14 ar
  19   14   15 ar
  20   15   16 ar
  21   16   17 ar
  22   16   19 1
  23   17   18 ar
  24   20   21 2
  25   20   22 2
  26   20   23 1
  27   23   24 1
  28   24   29 ar
  29   24   25 ar
  30   25   26 ar
  31   26   27 ar
  32   27   28 ar
  33   27   30 1
  34   28   29 ar





