#	Name:			7VM
#	Creating user name:	drognan
#	Creation time:		Wed Sep  5 12:09:46 2018


#	Modifying user name:	drognan
#	Modification time:	Wed Sep  5 12:09:46 2018

@<TRIPOS>MOLECULE
7VM
  34   37    0    0    0
SMALL
NO_CHARGES


@<TRIPOS>ATOM
   1 C1            -0.4228     0.8813     0.1473 C.3     
   2 N2            -0.3573    -0.5844     0.0742 N.3     
   3 C3             0.3688    -1.0196    -1.1264 C.3     
   4 C4             0.4162    -2.5483    -1.1676 C.3     
   5 N5             1.1423    -2.9836    -2.3681 N.3     
   6 C6             2.5545    -2.5867    -2.3018 C.3     
   7 C7             3.2437    -2.9256    -3.6255 C.3     
   8 C8             3.1287    -4.4304    -3.8845 C.3     
   9 C9             1.6496    -4.8259    -3.9007 C.3     
  10 C10            1.0066    -4.4319    -2.5690 C.3     
  11 C11            3.7531    -4.7614    -5.2155 C.ar    
  12 C12            3.0065    -4.6318    -6.3715 C.ar    
  13 C13            3.5903    -4.9389    -7.5908 C.ar    
  14 C14            4.9093    -5.3669    -7.6018 C.ar    
  15 C15            5.5930    -5.4722    -6.4056 C.ar    
  16 N16            5.0070    -5.1663    -5.2644 N.ar    
  17 C17            2.8100    -4.8112    -8.8737 C.3     
  18 N18            2.9802    -3.4612    -9.4165 N.am    
  19 C19            4.0788    -3.1774   -10.3432 C.3     
  20 C20            2.1261    -2.4802    -9.0632 C.2     
  21 O21            1.2821    -2.6862    -8.2132 O.2     
  22 C22            2.2159    -1.1535    -9.7098 C.ar    
  23 C23            2.5711    -1.0530   -11.0562 C.ar    
  24 C24            2.6535     0.1865   -11.6566 C.ar    
  25 C25            2.3856     1.3313   -10.9288 C.ar    
  26 C26            2.0316     1.2414    -9.5893 C.ar    
  27 C27            1.9404     0.0016    -8.9782 C.ar    
  28 O28            1.7694     2.3698    -8.8788 O.3     
  29 C29            2.6071     2.6899    -7.8579 C.ar    
  30 C30            3.7537     1.9398    -7.6385 C.ar    
  31 C31            4.6036     2.2673    -6.5999 C.ar    
  32 C32            4.3126     3.3415    -5.7794 C.ar    
  33 C33            3.1707     4.0906    -5.9959 C.ar    
  34 C34            2.3205     3.7709    -7.0365 C.ar    
@<TRIPOS>BOND
   1    1    2 1
   2    2    3 1
   3    3    4 1
   4    4    5 1
   5    5   10 1
   6    5    6 1
   7    6    7 1
   8    7    8 1
   9    8    9 1
  10    8   11 1
  11    9   10 1
  12   11   16 ar
  13   11   12 ar
  14   12   13 ar
  15   13   14 ar
  16   13   17 1
  17   14   15 ar
  18   15   16 ar
  19   17   18 1
  20   18   19 1
  21   18   20 am
  22   20   21 2
  23   20   22 1
  24   22   27 ar
  25   22   23 ar
  26   23   24 ar
  27   24   25 ar
  28   25   26 ar
  29   26   27 ar
  30   26   28 1
  31   28   29 1
  32   29   34 ar
  33   29   30 ar
  34   30   31 ar
  35   31   32 ar
  36   32   33 ar
  37   33   34 ar





