#	Name:			80U
#	Creating user name:	drognan
#	Creation time:		Wed Sep  5 12:09:46 2018


#	Modifying user name:	drognan
#	Modification time:	Wed Sep  5 12:09:46 2018

@<TRIPOS>MOLECULE
80U
  36   40    0    0    0
SMALL
NO_CHARGES


@<TRIPOS>ATOM
   1 C1            -2.5771    -2.6734     1.9264 C.3     
   2 N2            -1.3330    -2.7069     1.1536 N.pl3   
   3 C3            -1.2121    -2.9962    -0.1788 C.2     
   4 C4             0.0984    -2.9136    -0.4781 C.2     
   5 N5             0.7595    -2.5829     0.6411 N.2     
   6 C6            -0.0920    -2.4525     1.6214 C.2     
   7 C7             0.2534    -2.0876     3.0422 C.3     
   8 O8             0.2178    -0.6669     3.1912 O.3     
   9 C9             0.5075    -0.1682     4.4218 C.ar    
  10 C10            0.8250    -1.0311     5.4617 C.ar    
  11 C11            1.1199    -0.5284     6.7116 C.ar    
  12 C12            1.0991     0.8485     6.9308 C.ar    
  13 C13            0.7799     1.7133     5.8848 C.ar    
  14 C14            0.4908     1.2045     4.6349 C.ar    
  15 Cl15           0.0932     2.2798     3.3314 Cl      
  16 C16            1.4152     1.3916     8.2733 C.2     
  17 C17            2.5272     0.9855     9.1324 C.ar    
  18 C18            3.5742     0.0547     9.0284 C.ar    
  19 N19            4.4298    -0.0481    10.0406 N.ar    
  20 C20            4.3035     0.7036    11.1199 C.ar    
  21 N21            3.3403     1.5873    11.2613 N.ar    
  22 C22            2.4329     1.7641    10.3008 C.ar    
  23 N23            1.3473     2.5744    10.1503 N.pl3   
  24 N24            0.7524     2.3295     8.9080 N.2     
  25 C25            0.8788     3.5530    11.1346 C.3     
  26 H26            1.5325     3.5336    12.0066 H       
  27 C27           -0.5500     3.2064    11.5596 C.3     
  28 C28           -1.0285     4.2090    12.6121 C.3     
  29 C29           -1.0321     5.6162    12.0067 C.3     
  30 N30            0.3035     5.9013    11.4649 N.am    
  31 C31            0.8975     4.9529    10.5127 C.3     
  32 C32            0.9716     7.0121    11.8342 C.2     
  33 O33            0.5105     7.7426    12.6901 O.2     
  34 C34            2.2585     7.3407    11.2019 C.2     
  35 C35            2.8701     8.4849    11.4944 C.2     
  36 N36            3.7110    -0.7343     7.9027 N.pl3   
@<TRIPOS>BOND
   1    1    2 1
   2    2    6 1
   3    2    3 1
   4    3    4 2
   5    4    5 1
   6    5    6 2
   7    6    7 1
   8    7    8 1
   9    8    9 1
  10    9   14 ar
  11    9   10 ar
  12   10   11 ar
  13   11   12 ar
  14   12   13 ar
  15   12   16 1
  16   13   14 ar
  17   14   15 1
  18   16   24 2
  19   16   17 1
  20   17   22 ar
  21   17   18 ar
  22   18   19 ar
  23   18   36 1
  24   19   20 ar
  25   20   21 ar
  26   21   22 ar
  27   22   23 1
  28   23   24 1
  29   23   25 1
  30   25   26 1
  31   25   31 1
  32   25   27 1
  33   27   28 1
  34   28   29 1
  35   29   30 1
  36   30   31 1
  37   30   32 am
  38   32   33 2
  39   32   34 1
  40   34   35 2





