#       Name:                880
#       Creating user name   gbret
#       Creation time:       Fri Sep  9 02:55:00 2016


#       File generated by GOLD software.
#

@<TRIPOS>MOLECULE
880
    70    74     1
SMALL
NO_CHARGES


@<TRIPOS>ATOM
      1 C1           0.7624   4.7502   1.8929 C.3            1 <1>                0.0000
      2 C2           0.9090   3.2520   2.1665 C.3            1 <1>                0.0000
      3 C3           1.5355   2.5700   0.9486 C.3            1 <1>                0.0000
      4 N4           1.5596   1.1205   1.1592 N.pl3          1 <1>                0.0000
      5 C5           2.5017   0.4261   1.8300 C.2            1 <1>                0.0000
      6 N6           2.2010  -0.8432   1.8179 N.2            1 <1>                0.0000
      7 C7           1.0541  -1.0284   1.1407 C.2            1 <1>                0.0000
      8 C8           0.6214   0.2155   0.7139 C.2            1 <1>                0.0000
      9 C9          -0.5932   0.5108  -0.0673 C.ar           1 <1>                0.0000
     10 C10         -1.2248   1.7573   0.0419 C.ar           1 <1>                0.0000
     11 C11         -2.3601   1.9873  -0.7106 C.ar           1 <1>                0.0000
     12 N12         -2.8154   1.0314  -1.5071 N.ar           1 <1>                0.0000
     13 C13         -2.1993  -0.1389  -1.5920 C.ar           1 <1>                0.0000
     14 N14         -2.7095  -1.1093  -2.4370 N.pl3          1 <1>                0.0000
     15 C15         -3.9154  -0.8361  -3.2227 C.3            1 <1>                0.0000
     16 C16         -3.5286  -0.1199  -4.5182 C.3            1 <1>                0.0000
     17 C17         -4.7880   0.1655  -5.3387 C.3            1 <1>                0.0000
     18 C18         -5.4877  -1.1532  -5.6743 C.3            1 <1>                0.0000
     19 C19         -5.8745  -1.8693  -4.3788 C.3            1 <1>                0.0000
     20 C20         -4.6151  -2.1547  -3.5582 C.3            1 <1>                0.0000
     21 N21         -1.1062  -0.4021  -0.8941 N.ar           1 <1>                0.0000
     22 C22          0.3758  -2.3235   0.9009 C.ar           1 <1>                0.0000
     23 C23         -1.0172  -2.3883   0.8676 C.ar           1 <1>                0.0000
     24 C24         -1.6443  -3.5964   0.6434 C.ar           1 <1>                0.0000
     25 C25         -0.8939  -4.7440   0.4515 C.ar           1 <1>                0.0000
     26 Cl26        -1.6897  -6.2608   0.1694 Cl             1 <1>                0.0000
     27 C27          0.4900  -4.6860   0.4835 C.ar           1 <1>                0.0000
     28 Cl28         1.4239  -6.1294   0.2420 Cl             1 <1>                0.0000
     29 C29          1.1277  -3.4807   0.7019 C.ar           1 <1>                0.0000
     30 C30          3.7159   1.0251   2.4918 C.3            1 <1>                0.0000
     31 C31          3.6920   0.7071   3.9896 C.3            1 <1>                0.0000
     32 C32          4.9662   1.2491   4.6409 C.3            1 <1>                0.0000
     33 N33          6.1406   0.6206   4.0244 N.4            1 <1>                0.0000
     34 H34          6.9759   0.9398   4.4919 H              1 <1>                0.0000
     35 H35          6.0694  -0.3820   4.1125 H              1 <1>                0.0000
     36 C36          6.2095   0.9802   2.6030 C.3            1 <1>                0.0000
     37 C37          4.9832   0.4278   1.8732 C.3            1 <1>                0.0000
     38 H38          1.7444   5.1820   1.6998 H              1 <1>                0.0000
     39 H39          0.1223   4.8998   1.0234 H              1 <1>                0.0000
     40 H40          0.3161   5.2360   2.7606 H              1 <1>                0.0000
     41 H41          1.5491   3.1024   3.0360 H              1 <1>                0.0000
     42 H42         -0.0730   2.8201   2.3596 H              1 <1>                0.0000
     43 H43          0.9456   2.7984   0.0608 H              1 <1>                0.0000
     44 H44          2.5536   2.9343   0.8119 H              1 <1>                0.0000
     45 H45         -0.8334   2.5198   0.6991 H              1 <1>                0.0000
     46 H46         -2.8716   2.9366  -0.6501 H              1 <1>                0.0000
     47 H47         -2.2685  -1.9703  -2.5088 H              1 <1>                0.0000
     48 H48         -4.5897  -0.2036  -2.6453 H              1 <1>                0.0000
     49 H49         -3.0301   0.8195  -4.2791 H              1 <1>                0.0000
     50 H50         -2.8543  -0.7524  -5.0956 H              1 <1>                0.0000
     51 H51         -5.4623   0.7979  -4.7613 H              1 <1>                0.0000
     52 H52         -4.5125   0.6757  -6.2617 H              1 <1>                0.0000
     53 H53         -6.3850  -0.9499  -6.2589 H              1 <1>                0.0000
     54 H54         -4.8134  -1.7856  -6.2517 H              1 <1>                0.0000
     55 H55         -6.5488  -1.2369  -3.8014 H              1 <1>                0.0000
     56 H56         -6.3730  -2.8087  -4.6178 H              1 <1>                0.0000
     57 H57         -3.9408  -2.7872  -4.1356 H              1 <1>                0.0000
     58 H58         -4.8906  -2.6649  -2.6353 H              1 <1>                0.0000
     59 H59         -1.6039  -1.4940   1.0174 H              1 <1>                0.0000
     60 H60         -2.7228  -3.6472   0.6178 H              1 <1>                0.0000
     61 H61          2.2065  -3.4359   0.7264 H              1 <1>                0.0000
     62 H62          3.7141   2.1055   2.3473 H              1 <1>                0.0000
     63 H63          2.8212   1.1763   4.4475 H              1 <1>                0.0000
     64 H64          3.6415  -0.3725   4.1317 H              1 <1>                0.0000
     65 H65          5.0156   2.3286   4.4984 H              1 <1>                0.0000
     66 H66          4.9523   1.0246   5.7074 H              1 <1>                0.0000
     67 H67          6.2324   2.0655   2.5039 H              1 <1>                0.0000
     68 H68          7.1135   0.5571   2.1650 H              1 <1>                0.0000
     69 H69          4.9594  -0.6575   1.9714 H              1 <1>                0.0000
     70 H70          5.0352   0.6974   0.8184 H              1 <1>                0.0000
@<TRIPOS>BOND
    1    1    2 1     
    2    1   38 1     
    3    1   39 1     
    4    1   40 1     
    5    2    3 1     
    6    2   41 1     
    7    2   42 1     
    8    3    4 1     
    9    3   43 1     
   10    3   44 1     
   11    4    8 1     
   12    4    5 1     
   13    5    6 2     
   14    5   30 1     
   15    6    7 1     
   16    7    8 2     
   17    7   22 1     
   18    8    9 1     
   19    9   21 ar    
   20    9   10 ar    
   21   10   11 ar    
   22   10   45 1     
   23   11   12 ar    
   24   11   46 1     
   25   12   13 ar    
   26   13   14 1     
   27   13   21 ar    
   28   14   15 1     
   29   14   47 1     
   30   15   20 1     
   31   15   16 1     
   32   15   48 1     
   33   16   17 1     
   34   16   49 1     
   35   16   50 1     
   36   17   18 1     
   37   17   51 1     
   38   17   52 1     
   39   18   19 1     
   40   18   53 1     
   41   18   54 1     
   42   19   20 1     
   43   19   55 1     
   44   19   56 1     
   45   20   57 1     
   46   20   58 1     
   47   22   29 ar    
   48   22   23 ar    
   49   23   24 ar    
   50   23   59 1     
   51   24   25 ar    
   52   24   60 1     
   53   25   26 1     
   54   25   27 ar    
   55   27   28 1     
   56   27   29 ar    
   57   29   61 1     
   58   30   37 1     
   59   30   31 1     
   60   30   62 1     
   61   31   32 1     
   62   31   63 1     
   63   31   64 1     
   64   32   33 1     
   65   32   65 1     
   66   32   66 1     
   67   33   34 1     
   68   33   35 1     
   69   33   36 1     
   70   36   37 1     
   71   36   67 1     
   72   36   68 1     
   73   37   69 1     
   74   37   70 1     
@<TRIPOS>SUBSTRUCTURE
      1 ****           1
@<TRIPOS>SET
DONOR_HYDROGENS      STATIC     ATOMS    <user>   **** ""
3 47 34 35
ATOM$RED        STATIC     ATOMS    COLORGROUP SYSTEM
3 47 34 35
