#       Name:                8CA
#       Creating user name   gbret
#       Creation time:       Fri Sep  9 02:58:11 2016


#       File generated by GOLD software.
#

@<TRIPOS>MOLECULE
8CA
    41    44     1
SMALL
NO_CHARGES


@<TRIPOS>ATOM
      1 O1           0.9186  -4.0556  -0.2856 O.co2          1 <1>                0.0000
      2 C2           0.5888  -3.3506   0.6584 C.2            1 <1>                0.0000
      3 O3           1.3420  -3.2147   1.6130 O.co2          1 <1>                0.0000
      4 C4          -0.7110  -2.6614   0.6430 C.ar           1 <1>                0.0000
      5 C5          -1.8948  -3.3972   0.5807 C.ar           1 <1>                0.0000
      6 C6          -3.1189  -2.7552   0.5659 C.ar           1 <1>                0.0000
      7 C7          -3.1907  -1.3784   0.6122 C.ar           1 <1>                0.0000
      8 C8          -2.0220  -0.6183   0.6747 C.ar           1 <1>                0.0000
      9 C9          -1.7391   0.8129   0.7341 C.2            1 <1>                0.0000
     10 C10         -2.7241   1.9530   0.7471 C.3            1 <1>                0.0000
     11 C11         -1.9974   3.2164   1.2250 C.3            1 <1>                0.0000
     12 C12         -0.6976   3.3830   0.4327 C.3            1 <1>                0.0000
     13 C13          0.2975   2.2930   0.8463 C.3            1 <1>                0.0000
     14 C14         -0.4011   0.9544   0.7789 C.2            1 <1>                0.0000
     15 N15          0.1900  -0.2781   0.7542 N.pl3          1 <1>                0.0000
     16 C16          1.6348  -0.5173   0.7901 C.3            1 <1>                0.0000
     17 C17          2.2013  -0.3812  -0.5997 C.ar           1 <1>                0.0000
     18 C18          2.1461  -1.4487  -1.4762 C.ar           1 <1>                0.0000
     19 C19          2.6657  -1.3239  -2.7511 C.ar           1 <1>                0.0000
     20 C20          3.2400  -0.1313  -3.1496 C.ar           1 <1>                0.0000
     21 C21          3.2943   0.9366  -2.2735 C.ar           1 <1>                0.0000
     22 C22          2.7709   0.8131  -1.0000 C.ar           1 <1>                0.0000
     23 C23         -0.7678  -1.2577   0.6969 C.ar           1 <1>                0.0000
     24 H24         -1.8546  -4.4758   0.5434 H              1 <1>                0.0000
     25 H25         -4.0276  -3.3369   0.5173 H              1 <1>                0.0000
     26 H26         -4.1528  -0.8880   0.5996 H              1 <1>                0.0000
     27 H27         -3.1134   2.1124  -0.2584 H              1 <1>                0.0000
     28 H28         -3.5432   1.7218   1.4281 H              1 <1>                0.0000
     29 H29         -2.6352   4.0856   1.0646 H              1 <1>                0.0000
     30 H30         -1.7673   3.1242   2.2864 H              1 <1>                0.0000
     31 H31         -0.9084   3.2968  -0.6332 H              1 <1>                0.0000
     32 H32         -0.2690   4.3635   0.6400 H              1 <1>                0.0000
     33 H33          1.1485   2.2965   0.1651 H              1 <1>                0.0000
     34 H34          0.6395   2.4767   1.8648 H              1 <1>                0.0000
     35 H35          2.1076   0.2118   1.4482 H              1 <1>                0.0000
     36 H36          1.8274  -1.5229   1.1641 H              1 <1>                0.0000
     37 H37          1.6975  -2.3805  -1.1648 H              1 <1>                0.0000
     38 H38          2.6233  -2.1581  -3.4356 H              1 <1>                0.0000
     39 H39          3.6466  -0.0340  -4.1455 H              1 <1>                0.0000
     40 H40          3.7433   1.8682  -2.5848 H              1 <1>                0.0000
     41 H41          2.8133   1.6473  -0.3155 H              1 <1>                0.0000
@<TRIPOS>BOND
    1    1    2 ar    
    2    2    3 ar    
    3    2    4 1     
    4    4   23 ar    
    5    4    5 ar    
    6    5    6 ar    
    7    5   24 1     
    8    6    7 ar    
    9    6   25 1     
   10    7    8 ar    
   11    7   26 1     
   12    8   23 ar    
   13    8    9 1     
   14    9   14 2     
   15    9   10 1     
   16   10   11 1     
   17   10   27 1     
   18   10   28 1     
   19   11   12 1     
   20   11   29 1     
   21   11   30 1     
   22   12   13 1     
   23   12   31 1     
   24   12   32 1     
   25   13   14 1     
   26   13   33 1     
   27   13   34 1     
   28   14   15 1     
   29   15   16 1     
   30   15   23 1     
   31   16   17 1     
   32   16   35 1     
   33   16   36 1     
   34   17   22 ar    
   35   17   18 ar    
   36   18   19 ar    
   37   18   37 1     
   38   19   20 ar    
   39   19   38 1     
   40   20   21 ar    
   41   20   39 1     
   42   21   22 ar    
   43   21   40 1     
   44   22   41 1     
@<TRIPOS>SUBSTRUCTURE
      1 ****           1
