#	Name:			8E8
#	Creating user name:	drognan
#	Creation time:		Wed Sep  5 12:09:46 2018


#	Modifying user name:	drognan
#	Modification time:	Wed Sep  5 12:09:46 2018

@<TRIPOS>MOLECULE
8E8
  34   38    0    0    0
SMALL
NO_CHARGES


@<TRIPOS>ATOM
   1 C1            -0.8006    -0.2948     0.9239 C.3     
   2 C2            -0.1352    -1.6722     0.8959 C.3     
   3 C3             0.4438    -1.9227    -0.4727 C.2     
   4 O4             0.3350    -1.0823    -1.3403 O.2     
   5 N5             1.0825    -3.0807    -0.7326 N.am    
   6 C6             1.2169    -4.1109     0.3063 C.3     
   7 C7             2.6971    -4.4805     0.4457 C.3     
   8 C8             3.2471    -4.8915    -0.9221 C.3     
   9 C9             3.1323    -3.7153    -1.8944 C.3     
  10 H10            3.6845    -2.8622    -1.5002 H       
  11 C11            1.6522    -3.3394    -2.0619 C.3     
  12 N12            3.6884    -4.0993    -3.1942 N.pl3   
  13 C13            4.7391    -3.4893    -3.8123 C.ar    
  14 C14            4.9465    -4.1660    -5.0291 C.ar    
  15 C15            3.9401    -5.2258    -5.0902 C.2     
  16 N16            3.2275    -5.1528    -3.9909 N.2     
  17 C17            3.7616    -6.2047    -6.1888 C.ar    
  18 C18            2.4831    -6.4994    -6.6611 C.ar    
  19 C19            2.3204    -7.4101    -7.6835 C.ar    
  20 C20            3.4280    -8.0338    -8.2426 C.ar    
  21 C21            4.7025    -7.7428    -7.7742 C.ar    
  22 C22            4.8723    -6.8284    -6.7562 C.ar    
  23 O23            3.2644    -8.9310    -9.2496 O.3     
  24 C24            3.0194    -8.4519   -10.4973 C.ar    
  25 C25            2.7075    -9.3262   -11.5287 C.ar    
  26 C26            2.4589    -8.8365   -12.7962 C.ar    
  27 C27            2.5211    -7.4765   -13.0377 C.ar    
  28 C28            2.8318    -6.6031   -12.0118 C.ar    
  29 C29            3.0751    -7.0870   -10.7410 C.ar    
  30 C30            5.9841    -3.7320    -5.8700 C.ar    
  31 N31            6.7246    -2.6997    -5.4776 N.ar    
  32 C32            6.4946    -2.0937    -4.3265 C.ar    
  33 N33            5.5349    -2.4646    -3.5076 N.ar    
  34 N34            6.2296    -4.3621    -7.0747 N.pl3   
@<TRIPOS>BOND
   1    1    2 1
   2    2    3 1
   3    3    4 2
   4    3    5 am
   5    5   11 1
   6    5    6 1
   7    6    7 1
   8    7    8 1
   9    8    9 1
  10    9   10 1
  11    9   11 1
  12    9   12 1
  13   12   16 1
  14   12   13 1
  15   13   33 ar
  16   13   14 ar
  17   14   15 1
  18   14   30 ar
  19   15   16 2
  20   15   17 1
  21   17   22 ar
  22   17   18 ar
  23   18   19 ar
  24   19   20 ar
  25   20   21 ar
  26   20   23 1
  27   21   22 ar
  28   23   24 1
  29   24   29 ar
  30   24   25 ar
  31   25   26 ar
  32   26   27 ar
  33   27   28 ar
  34   28   29 ar
  35   30   31 ar
  36   30   34 1
  37   31   32 ar
  38   32   33 ar





