#       Name:                8MO
#       Creating user name   gbret
#       Creation time:       Fri Sep  9 03:00:52 2016


#       File generated by GOLD software.
#

@<TRIPOS>MOLECULE
8MO
    24    26     1
SMALL
NO_CHARGES


@<TRIPOS>ATOM
      1 C1          -1.3966   2.2375   1.7638 C.3            1 <1>                0.0000
      2 O2          -1.3772   0.8086   1.7559 O.3            1 <1>                0.0000
      3 C3          -0.7728   0.2049   0.6970 C.ar           1 <1>                0.0000
      4 C4          -1.5117  -0.1092  -0.4385 C.ar           1 <1>                0.0000
      5 O5          -2.8094   0.0599  -0.7682 O.3            1 <1>                0.0000
      6 C6          -3.0576  -0.4142  -2.0019 C.2            1 <1>                0.0000
      7 C7          -1.9388  -0.9156  -2.5397 C.2            1 <1>                0.0000
      8 C8          -0.8833  -0.7337  -1.5333 C.ar           1 <1>                0.0000
      9 C9           0.4708  -1.0395  -1.4884 C.ar           1 <1>                0.0000
     10 C10          1.2068  -0.7225  -0.3468 C.ar           1 <1>                0.0000
     11 C11          2.6382  -1.0315  -0.2678 C.2            1 <1>                0.0000
     12 C12          3.3043  -0.7001   0.8671 C.2            1 <1>                0.0000
     13 C13          2.6153  -0.0756   1.9287 C.2            1 <1>                0.0000
     14 O14          3.2259   0.2161   2.9412 O.2            1 <1>                0.0000
     15 O15          1.3059   0.2057   1.8520 O.3            1 <1>                0.0000
     16 C16          0.5820  -0.0919   0.7484 C.ar           1 <1>                0.0000
     17 H17         -0.3740   2.6148   1.7560 H              1 <1>                0.0000
     18 H18         -1.9238   2.5986   0.8807 H              1 <1>                0.0000
     19 H19         -1.9068   2.5890   2.6606 H              1 <1>                0.0000
     20 H20         -4.0213  -0.3937  -2.4889 H              1 <1>                0.0000
     21 H21         -1.8332  -1.3639  -3.5165 H              1 <1>                0.0000
     22 H22          0.9493  -1.5188  -2.3296 H              1 <1>                0.0000
     23 H23          3.1483  -1.5102  -1.0905 H              1 <1>                0.0000
     24 H24          4.3590  -0.9141   0.9578 H              1 <1>                0.0000
@<TRIPOS>BOND
    1    1    2 1     
    2    1   17 1     
    3    1   18 1     
    4    1   19 1     
    5    2    3 1     
    6    3   16 ar    
    7    3    4 ar    
    8    4    8 ar    
    9    4    5 1     
   10    5    6 1     
   11    6    7 2     
   12    6   20 1     
   13    7    8 1     
   14    7   21 1     
   15    8    9 ar    
   16    9   10 ar    
   17    9   22 1     
   18   10   16 ar    
   19   10   11 1     
   20   11   12 2     
   21   11   23 1     
   22   12   13 1     
   23   12   24 1     
   24   13   14 2     
   25   13   15 1     
   26   15   16 1     
@<TRIPOS>SUBSTRUCTURE
      1 ****           1
