#       Name:                902
#       Creating user name   gbret
#       Creation time:       Fri Sep  9 03:04:01 2016


#       File generated by GOLD software.
#

@<TRIPOS>MOLECULE
902
    62    66     1
SMALL
NO_CHARGES


@<TRIPOS>ATOM
      1 O1           6.6386  -0.7356  -6.1425 O.co2          1 <1>                0.0000
      2 C2           5.6075  -1.3415  -6.3800 C.2            1 <1>                0.0000
      3 O3           5.1244  -1.3075  -7.4989 O.co2          1 <1>                0.0000
      4 C4           4.9337  -2.1375  -5.2921 C.3            1 <1>                0.0000
      5 O5           5.6884  -2.0268  -4.0838 O.3            1 <1>                0.0000
      6 C6           5.2131  -2.6916  -2.9952 C.2            1 <1>                0.0000
      7 C7           4.3302  -2.1230  -2.1022 C.2            1 <1>                0.0000
      8 Br8          3.6825  -0.3565  -2.2917 Br             1 <1>                0.0000
      9 C9           3.9617  -2.9337  -1.0742 C.2            1 <1>                0.0000
     10 S10          4.7607  -4.4920  -1.2297 S.3            1 <1>                0.0000
     11 C11          5.5671  -3.9742  -2.7037 C.2            1 <1>                0.0000
     12 C12          6.4940  -4.8029  -3.5022 C.2            1 <1>                0.0000
     13 N13          7.1244  -4.4417  -4.6171 N.2            1 <1>                0.0000
     14 N14          7.8360  -5.4450  -5.0032 N.2            1 <1>                0.0000
     15 N15          7.6773  -6.4189  -4.1767 N.pl3          1 <1>                0.0000
     16 N16          6.8657  -6.0543  -3.2435 N.2            1 <1>                0.0000
     17 C17          3.0302  -2.5610   0.0100 C.ar           1 <1>                0.0000
     18 C18          3.3730  -2.8023   1.3425 C.ar           1 <1>                0.0000
     19 C19          2.5014  -2.4528   2.3533 C.ar           1 <1>                0.0000
     20 C20          1.2874  -1.8634   2.0527 C.ar           1 <1>                0.0000
     21 C21          0.9365  -1.6189   0.7300 C.ar           1 <1>                0.0000
     22 N22         -0.2911  -1.0227   0.4318 N.pl3          1 <1>                0.0000
     23 C23         -1.2088  -0.6552   1.5130 C.3            1 <1>                0.0000
     24 C24         -0.8333   0.7267   2.0528 C.3            1 <1>                0.0000
     25 C25         -1.7731   1.0927   3.2059 C.3            1 <1>                0.0000
     26 N26         -3.1613   0.9848   2.7370 N.pl3          1 <1>                0.0000
     27 C27         -3.6021  -0.2725   2.1175 C.3            1 <1>                0.0000
     28 C28         -2.6418  -0.6232   0.9766 C.3            1 <1>                0.0000
     29 S29         -4.2095   2.2559   2.9040 S.o2           1 <1>                0.0000
     30 O30         -5.4931   1.6480   2.9495 O.2            1 <1>                0.0000
     31 O31         -3.7037   2.9836   4.0148 O.2            1 <1>                0.0000
     32 C32         -4.0111   3.2103   1.3742 C.3            1 <1>                0.0000
     33 C33         -4.9249   4.4082   1.4073 C.ar           1 <1>                0.0000
     34 C34         -6.2117   4.3097   0.9121 C.ar           1 <1>                0.0000
     35 C35         -7.0499   5.4085   0.9424 C.ar           1 <1>                0.0000
     36 C36         -6.6014   6.6057   1.4684 C.ar           1 <1>                0.0000
     37 C37         -5.3149   6.7039   1.9644 C.ar           1 <1>                0.0000
     38 C38         -4.4781   5.6039   1.9379 C.ar           1 <1>                0.0000
     39 C39          1.8075  -1.9615  -0.2930 C.ar           1 <1>                0.0000
     40 H40          3.9278  -1.7507  -5.1289 H              1 <1>                0.0000
     41 H41          4.8765  -3.1844  -5.5902 H              1 <1>                0.0000
     42 H42          4.3203  -3.2628   1.5815 H              1 <1>                0.0000
     43 H43          2.7682  -2.6405   3.3828 H              1 <1>                0.0000
     44 H44          0.6092  -1.5924   2.8483 H              1 <1>                0.0000
     45 H45         -0.5359  -0.8521  -0.4912 H              1 <1>                0.0000
     46 H46         -1.1377  -1.3898   2.3151 H              1 <1>                0.0000
     47 H47          0.1952   0.7094   2.4132 H              1 <1>                0.0000
     48 H48         -0.9282   1.4660   1.2575 H              1 <1>                0.0000
     49 H49         -1.6143   0.4072   4.0383 H              1 <1>                0.0000
     50 H50         -1.5748   2.1148   3.5286 H              1 <1>                0.0000
     51 H51         -3.5924  -1.0693   2.8612 H              1 <1>                0.0000
     52 H52         -4.6105  -0.1512   1.7221 H              1 <1>                0.0000
     53 H53         -2.7197   0.1289   0.1915 H              1 <1>                0.0000
     54 H54         -2.9004  -1.6013   0.5711 H              1 <1>                0.0000
     55 H55         -2.9773   3.5443   1.2858 H              1 <1>                0.0000
     56 H56         -4.2647   2.5833   0.5193 H              1 <1>                0.0000
     57 H57         -6.5621   3.3744   0.5012 H              1 <1>                0.0000
     58 H58         -8.0551   5.3318   0.5549 H              1 <1>                0.0000
     59 H59         -7.2561   7.4643   1.4914 H              1 <1>                0.0000
     60 H60         -4.9643   7.6391   2.3750 H              1 <1>                0.0000
     61 H61         -3.4729   5.6806   2.3254 H              1 <1>                0.0000
     62 H62          1.5369  -1.7723  -1.3212 H              1 <1>                0.0000
@<TRIPOS>BOND
    1    1    2 ar    
    2    2    3 ar    
    3    2    4 1     
    4    4    5 1     
    5    4   40 1     
    6    4   41 1     
    7    5    6 1     
    8    6   11 2     
    9    6    7 1     
   10    7    8 1     
   11    7    9 2     
   12    9   10 1     
   13    9   17 1     
   14   10   11 1     
   15   11   12 1     
   16   12   16 2     
   17   12   13 1     
   18   13   14 2     
   19   14   15 1     
   20   15   16 1     
   21   17   39 ar    
   22   17   18 ar    
   23   18   19 ar    
   24   18   42 1     
   25   19   20 ar    
   26   19   43 1     
   27   20   21 ar    
   28   20   44 1     
   29   21   22 1     
   30   21   39 ar    
   31   22   23 1     
   32   22   45 1     
   33   23   28 1     
   34   23   24 1     
   35   23   46 1     
   36   24   25 1     
   37   24   47 1     
   38   24   48 1     
   39   25   26 1     
   40   25   49 1     
   41   25   50 1     
   42   26   27 1     
   43   26   29 1     
   44   27   28 1     
   45   27   51 1     
   46   27   52 1     
   47   28   53 1     
   48   28   54 1     
   49   29   30 2     
   50   29   31 2     
   51   29   32 1     
   52   32   33 1     
   53   32   55 1     
   54   32   56 1     
   55   33   38 ar    
   56   33   34 ar    
   57   34   35 ar    
   58   34   57 1     
   59   35   36 ar    
   60   35   58 1     
   61   36   37 ar    
   62   36   59 1     
   63   37   38 ar    
   64   37   60 1     
   65   38   61 1     
   66   39   62 1     
@<TRIPOS>SUBSTRUCTURE
      1 ****           1
@<TRIPOS>SET
DONOR_HYDROGENS      STATIC     ATOMS    <user>   **** ""
1 45
ATOM$RED        STATIC     ATOMS    COLORGROUP SYSTEM
1 45
