#       Name:                926
#       Creating user name   gbret
#       Creation time:       Fri Sep  9 03:05:32 2016


#       File generated by GOLD software.
#

@<TRIPOS>MOLECULE
926
    33    35     1
SMALL
NO_CHARGES


@<TRIPOS>ATOM
      1 C1          -0.7073   3.7856  -3.5761 C.3            1 <1>                0.0000
      2 N2          -1.3743   2.6224  -2.9860 N.pl3          1 <1>                0.0000
      3 C3          -2.7320   2.4185  -2.8904 C.2            1 <1>                0.0000
      4 C4          -2.9085   1.2311  -2.2857 C.2            1 <1>                0.0000
      5 N5          -1.7001   0.7117  -2.0132 N.2            1 <1>                0.0000
      6 C6          -0.7689   1.5357  -2.4336 C.2            1 <1>                0.0000
      7 S7           0.9695   1.2830  -2.2962 S.3            1 <1>                0.0000
      8 C8           0.9888  -0.2061  -1.3545 C.ar           1 <1>                0.0000
      9 C9           1.0909  -1.4348  -1.9982 C.ar           1 <1>                0.0000
     10 C10          1.1069  -2.6055  -1.2641 C.ar           1 <1>                0.0000
     11 C11          1.0212  -2.5636   0.1130 C.ar           1 <1>                0.0000
     12 C12          0.9184  -1.3353   0.7692 C.ar           1 <1>                0.0000
     13 C13          0.9080  -0.1529   0.0288 C.ar           1 <1>                0.0000
     14 C14          0.8261  -1.2877   2.2433 C.2            1 <1>                0.0000
     15 C15          0.7192  -0.0736   2.8847 C.2            1 <1>                0.0000
     16 C16          0.6316  -0.0322   4.2789 C.2            1 <1>                0.0000
     17 C17          0.6534  -1.1999   4.9873 C.2            1 <1>                0.0000
     18 C18          0.7632  -2.4235   4.3079 C.2            1 <1>                0.0000
     19 O19          0.7826  -3.4688   4.9379 O.2            1 <1>                0.0000
     20 N20          0.8416  -2.4494   2.9640 N.am           1 <1>                0.0000
     21 H21          0.9172  -3.2997   2.5034 H              1 <1>                0.0000
     22 H22         -0.5410   3.6088  -4.6387 H              1 <1>                0.0000
     23 H23         -1.3346   4.6678  -3.4483 H              1 <1>                0.0000
     24 H24          0.2501   3.9457  -3.0802 H              1 <1>                0.0000
     25 H25         -3.5080   3.0858  -3.2353 H              1 <1>                0.0000
     26 H26         -3.8596   0.7731  -2.0574 H              1 <1>                0.0000
     27 H27          1.1575  -1.4741  -3.0754 H              1 <1>                0.0000
     28 H28          1.1863  -3.5566  -1.7696 H              1 <1>                0.0000
     29 H29          1.0334  -3.4809   0.6829 H              1 <1>                0.0000
     30 H30          0.8287   0.8001   0.5307 H              1 <1>                0.0000
     31 H31          0.7034   0.8424   2.3129 H              1 <1>                0.0000
     32 H32          0.5478   0.9146   4.7916 H              1 <1>                0.0000
     33 H33          0.5869  -1.1819   6.0651 H              1 <1>                0.0000
@<TRIPOS>BOND
    1    1    2 1     
    2    1   22 1     
    3    1   23 1     
    4    1   24 1     
    5    2    6 1     
    6    2    3 1     
    7    3    4 2     
    8    3   25 1     
    9    4    5 1     
   10    4   26 1     
   11    5    6 2     
   12    6    7 1     
   13    7    8 1     
   14    8   13 ar    
   15    8    9 ar    
   16    9   10 ar    
   17    9   27 1     
   18   10   11 ar    
   19   10   28 1     
   20   11   12 ar    
   21   11   29 1     
   22   12   13 ar    
   23   12   14 1     
   24   13   30 1     
   25   14   20 1     
   26   14   15 2     
   27   15   16 1     
   28   15   31 1     
   29   16   17 2     
   30   16   32 1     
   31   17   18 1     
   32   17   33 1     
   33   18   19 2     
   34   18   20 am    
   35   20   21 1     
@<TRIPOS>SUBSTRUCTURE
      1 ****           1
@<TRIPOS>SET
DONOR_HYDROGENS      STATIC     ATOMS    <user>   **** ""
1 21
ATOM$RED        STATIC     ATOMS    COLORGROUP SYSTEM
1 21
