#       Name:                953
#       Creating user name   gbret
#       Creation time:       Fri Sep  9 03:07:22 2016


#       File generated by GOLD software.
#

@<TRIPOS>MOLECULE
953
    37    39     1
SMALL
NO_CHARGES


@<TRIPOS>ATOM
      1 N1           2.0441   3.4127   0.2076 N.am           1 <1>                0.0000
      2 C2           2.0624   2.0650   0.2002 C.2            1 <1>                0.0000
      3 O3           3.1240   1.4712   0.1869 O.2            1 <1>                0.0000
      4 C4           0.7987   1.3123   0.2082 C.2            1 <1>                0.0000
      5 C5          -0.5053   1.8575   0.2175 C.2            1 <1>                0.0000
      6 C6          -1.3822   0.8178   0.2227 C.2            1 <1>                0.0000
      7 N7          -0.6720  -0.3598   0.2170 N.pl3          1 <1>                0.0000
      8 H8          -1.0574  -1.2499   0.2185 H              1 <1>                0.0000
      9 C9           0.6589  -0.0749   0.2021 C.2            1 <1>                0.0000
     10 C10          1.7582  -1.0590   0.1919 C.ar           1 <1>                0.0000
     11 C11          1.9321  -1.9059  -0.9056 C.ar           1 <1>                0.0000
     12 C12          2.9619  -2.8230  -0.9085 C.ar           1 <1>                0.0000
     13 C13          3.8228  -2.9063   0.1722 C.ar           1 <1>                0.0000
     14 C14          3.6576  -2.0720   1.2629 C.ar           1 <1>                0.0000
     15 C15          2.6344  -1.1446   1.2779 C.ar           1 <1>                0.0000
     16 Cl16         2.4280  -0.0981   2.6475 Cl             1 <1>                0.0000
     17 C17          3.1503  -3.7374  -2.0915 C.3            1 <1>                0.0000
     18 F18          4.0009  -3.1288  -3.0206 F              1 <1>                0.0000
     19 F19          3.7144  -4.9438  -1.6631 F              1 <1>                0.0000
     20 F20          1.9104  -3.9885  -2.6889 F              1 <1>                0.0000
     21 C21         -2.8534   0.9342   0.2332 C.ar           1 <1>                0.0000
     22 C22         -3.6581  -0.2125   0.2441 C.ar           1 <1>                0.0000
     23 C23         -5.0305  -0.0529   0.2536 C.ar           1 <1>                0.0000
     24 N24         -5.5415   1.1693   0.2521 N.ar           1 <1>                0.0000
     25 C25         -4.7576   2.2378   0.2417 C.ar           1 <1>                0.0000
     26 N26         -5.3335   3.4964   0.2410 N.pl3          1 <1>                0.0000
     27 N27         -3.4383   2.1328   0.2379 N.ar           1 <1>                0.0000
     28 H28          2.8774   3.9090   0.1983 H              1 <1>                0.0000
     29 H29          1.1976   3.8861   0.2182 H              1 <1>                0.0000
     30 H30         -0.7590   2.9073   0.2202 H              1 <1>                0.0000
     31 H31          1.2613  -1.8428  -1.7496 H              1 <1>                0.0000
     32 H32          4.6275  -3.6266   0.1638 H              1 <1>                0.0000
     33 H33          4.3329  -2.1428   2.1027 H              1 <1>                0.0000
     34 H34         -3.2162  -1.1979   0.2447 H              1 <1>                0.0000
     35 H35         -5.6800  -0.9157   0.2618 H              1 <1>                0.0000
     36 H36         -6.2992   3.5879   0.2481 H              1 <1>                0.0000
     37 H37         -4.7715   4.2870   0.2334 H              1 <1>                0.0000
@<TRIPOS>BOND
    1    1    2 am    
    2    1   28 1     
    3    1   29 1     
    4    2    3 2     
    5    2    4 1     
    6    4    9 2     
    7    4    5 1     
    8    5    6 2     
    9    5   30 1     
   10    6    7 1     
   11    6   21 1     
   12    7    8 1     
   13    7    9 1     
   14    9   10 1     
   15   10   15 ar    
   16   10   11 ar    
   17   11   12 ar    
   18   11   31 1     
   19   12   13 ar    
   20   12   17 1     
   21   13   14 ar    
   22   13   32 1     
   23   14   15 ar    
   24   14   33 1     
   25   15   16 1     
   26   17   18 1     
   27   17   19 1     
   28   17   20 1     
   29   21   27 ar    
   30   21   22 ar    
   31   22   23 ar    
   32   22   34 1     
   33   23   24 ar    
   34   23   35 1     
   35   24   25 ar    
   36   25   26 1     
   37   25   27 ar    
   38   26   36 1     
   39   26   37 1     
@<TRIPOS>SUBSTRUCTURE
      1 ****           1
@<TRIPOS>SET
DONOR_HYDROGENS      STATIC     ATOMS    <user>   **** ""
5 28 29 8 36 37
ATOM$RED        STATIC     ATOMS    COLORGROUP SYSTEM
5 28 29 8 36 37
