#       Name:                982
#       Creating user name   gbret
#       Creation time:       Fri Sep  9 03:08:43 2016


#       File generated by GOLD software.
#

@<TRIPOS>MOLECULE
982
    22    23     1
SMALL
NO_CHARGES


@<TRIPOS>ATOM
      1 O1           3.4833  -1.8311   0.6343 O.co2          1 <1>                0.0000
      2 C2           3.4667  -0.6120   0.6410 C.2            1 <1>                0.0000
      3 O3           4.5142   0.0119   0.6344 O.co2          1 <1>                0.0000
      4 C4           2.1516   0.1237   0.6513 C.3            1 <1>                0.0000
      5 O5           1.0781  -0.8196   0.6512 O.3            1 <1>                0.0000
      6 C6          -0.1813  -0.3186   0.6599 C.2            1 <1>                0.0000
      7 C7          -0.8594  -0.0466   1.8032 C.2            1 <1>                0.0000
      8 S8          -2.4548   0.5880   1.4525 S.3            1 <1>                0.0000
      9 C9          -2.1988   0.4831  -0.2851 C.ar           1 <1>                0.0000
     10 N10         -3.0138   0.8059  -1.2938 N.ar           1 <1>                0.0000
     11 C11         -2.6590   0.6624  -2.5493 C.ar           1 <1>                0.0000
     12 C12         -1.4095   0.1643  -2.8889 C.ar           1 <1>                0.0000
     13 C13         -0.5308  -0.1838  -1.9026 C.ar           1 <1>                0.0000
     14 C14         -0.9204  -0.0202  -0.5527 C.ar           1 <1>                0.0000
     15 C15         -0.3471  -0.2488   3.1046 C.2            1 <1>                0.0000
     16 O16          0.7828  -0.6989   3.2553 O.co2          1 <1>                0.0000
     17 O17         -1.0328   0.0259   4.0826 O.co2          1 <1>                0.0000
     18 H18          2.0895   0.7447   1.5449 H              1 <1>                0.0000
     19 H19          2.0811   0.7543  -0.2350 H              1 <1>                0.0000
     20 H20         -3.3516   0.9365  -3.3312 H              1 <1>                0.0000
     21 H21         -1.1333   0.0522  -3.9270 H              1 <1>                0.0000
     22 H22          0.4459  -0.5732  -2.1493 H              1 <1>                0.0000
@<TRIPOS>BOND
    1    1    2 ar    
    2    2    3 ar    
    3    2    4 1     
    4    4    5 1     
    5    4   18 1     
    6    4   19 1     
    7    5    6 1     
    8    6   14 1     
    9    6    7 2     
   10    7    8 1     
   11    7   15 1     
   12    8    9 1     
   13    9   14 ar    
   14    9   10 ar    
   15   10   11 ar    
   16   11   12 ar    
   17   11   20 1     
   18   12   13 ar    
   19   12   21 1     
   20   13   14 ar    
   21   13   22 1     
   22   15   16 ar    
   23   15   17 ar    
@<TRIPOS>SUBSTRUCTURE
      1 ****           1
