#       Name:                983
#       Creating user name   gbret
#       Creation time:       Fri Sep  9 03:08:46 2016


#       File generated by GOLD software.
#

@<TRIPOS>MOLECULE
983
    83    85     1
SMALL
NO_CHARGES


@<TRIPOS>ATOM
      1 C1           3.3160  -3.2207  -0.6273 C.3            1 <1>                0.0000
      2 C2           3.0865  -1.8781   0.0695 C.3            1 <1>                0.0000
      3 C3           3.6118  -0.7470  -0.8169 C.3            1 <1>                0.0000
      4 C4           1.5894  -1.6802   0.3151 C.3            1 <1>                0.0000
      5 N5           0.8643  -1.8207  -0.9501 N.pl3          1 <1>                0.0000
      6 S6          -0.2383  -0.6717  -1.4045 S.o2           1 <1>                0.0000
      7 O7          -0.6860  -1.1017  -2.6828 O.2            1 <1>                0.0000
      8 O8          -1.1335  -0.5904  -0.3039 O.2            1 <1>                0.0000
      9 C9           0.7319   0.8542  -1.5500 C.3            1 <1>                0.0000
     10 C10         -0.2059   2.0300  -1.8310 C.3            1 <1>                0.0000
     11 C11          0.6123   3.3169  -1.9537 C.3            1 <1>                0.0000
     12 C12         -0.3190   4.4916  -2.1079 C.ar           1 <1>                0.0000
     13 C13         -0.7207   4.8944  -3.3678 C.ar           1 <1>                0.0000
     14 C14         -1.5750   5.9719  -3.5092 C.ar           1 <1>                0.0000
     15 C15         -2.0280   6.6463  -2.3908 C.ar           1 <1>                0.0000
     16 C16         -1.6270   6.2429  -1.1309 C.ar           1 <1>                0.0000
     17 C17         -0.7761   5.1628  -0.9892 C.ar           1 <1>                0.0000
     18 N18         -0.9288   1.7897  -3.0824 N.am           1 <1>                0.0000
     19 C19         -2.1237   2.3763  -3.2937 C.2            1 <1>                0.0000
     20 O20         -2.6014   3.1044  -2.4462 O.2            1 <1>                0.0000
     21 O21         -2.7880   2.1556  -4.4437 O.3            1 <1>                0.0000
     22 C22         -4.0692   2.8201  -4.6029 C.3            1 <1>                0.0000
     23 C23         -4.6605   2.4572  -5.9407 C.ar           1 <1>                0.0000
     24 C24         -4.3777   3.2274  -7.0532 C.ar           1 <1>                0.0000
     25 C25         -4.9201   2.8946  -8.2804 C.ar           1 <1>                0.0000
     26 C26         -5.7449   1.7912  -8.3951 C.ar           1 <1>                0.0000
     27 C27         -6.0270   1.0204  -7.2828 C.ar           1 <1>                0.0000
     28 C28         -5.4811   1.3508  -6.0565 C.ar           1 <1>                0.0000
     29 P29          0.9966  -2.9344   1.4977 P.3            1 <1>                0.0000
     30 O30         -0.4732  -2.6374   1.8699 O.co2          1 <1>                0.0000
     31 O31          1.0916  -4.3354   0.8534 O.co2          1 <1>                0.0000
     32 C32          2.0259  -2.8862   3.0016 C.3            1 <1>                0.0000
     33 C33          1.5776  -3.9895   3.9621 C.3            1 <1>                0.0000
     34 C34          2.0622  -5.3236   3.4559 C.2            1 <1>                0.0000
     35 O35          3.2563  -5.5244   3.3134 O.co2          1 <1>                0.0000
     36 O36          1.2602  -6.2023   3.1889 O.co2          1 <1>                0.0000
     37 C37          2.1560  -3.7307   5.3294 C.ar           1 <1>                0.0000
     38 C38          3.5266  -3.6696   5.5000 C.ar           1 <1>                0.0000
     39 C39          4.0571  -3.4323   6.7540 C.ar           1 <1>                0.0000
     40 C40          3.2170  -3.2556   7.8378 C.ar           1 <1>                0.0000
     41 C41          1.8468  -3.3158   7.6672 C.ar           1 <1>                0.0000
     42 C42          0.9312  -3.1237   8.8486 C.3            1 <1>                0.0000
     43 N43          0.6042  -1.6984   8.9880 N.4            1 <1>                0.0000
     44 H44          0.1443  -1.3753   8.1500 H              1 <1>                0.0000
     45 H45         -0.0088  -1.5698   9.7790 H              1 <1>                0.0000
     46 H46          1.4525  -1.1711   9.1307 H              1 <1>                0.0000
     47 C47          1.3161  -3.5490   6.4120 C.ar           1 <1>                0.0000
     48 H48          4.3603  -3.2995  -0.9293 H              1 <1>                0.0000
     49 H49          3.0739  -4.0322   0.0589 H              1 <1>                0.0000
     50 H50          2.6771  -3.2868  -1.5080 H              1 <1>                0.0000
     51 H51          3.6155  -1.8683   1.0225 H              1 <1>                0.0000
     52 H52          3.0415  -0.7183  -1.7454 H              1 <1>                0.0000
     53 H53          3.5041   0.2037  -0.2948 H              1 <1>                0.0000
     54 H54          4.6641  -0.9207  -1.0421 H              1 <1>                0.0000
     55 H55          1.4168  -0.6847   0.7242 H              1 <1>                0.0000
     56 H56          1.0300  -2.5867  -1.5216 H              1 <1>                0.0000
     57 H57          1.2697   1.0329  -0.6189 H              1 <1>                0.0000
     58 H58          1.4451   0.7547  -2.3682 H              1 <1>                0.0000
     59 H59         -0.9191   2.1295  -1.0128 H              1 <1>                0.0000
     60 H60          1.2184   3.4490  -1.0574 H              1 <1>                0.0000
     61 H61          1.2629   3.2521  -2.8258 H              1 <1>                0.0000
     62 H62         -0.3668   4.3675  -4.2416 H              1 <1>                0.0000
     63 H63         -1.8883   6.2871  -4.4936 H              1 <1>                0.0000
     64 H64         -2.6949   7.4886  -2.5014 H              1 <1>                0.0000
     65 H65         -1.9807   6.7700  -0.2571 H              1 <1>                0.0000
     66 H66         -0.4628   4.8476  -0.0048 H              1 <1>                0.0000
     67 H67         -0.5475   1.2085  -3.7589 H              1 <1>                0.0000
     68 H68         -4.7447   2.5020  -3.8088 H              1 <1>                0.0000
     69 H69         -3.9278   3.8995  -4.5490 H              1 <1>                0.0000
     70 H70         -3.7333   4.0895  -6.9636 H              1 <1>                0.0000
     71 H71         -4.6997   3.4967  -9.1494 H              1 <1>                0.0000
     72 H72         -6.1692   1.5315  -9.3537 H              1 <1>                0.0000
     73 H73         -6.6716   0.1586  -7.3724 H              1 <1>                0.0000
     74 H74         -5.7015   0.7487  -5.1874 H              1 <1>                0.0000
     75 H75          3.0706  -3.0415   2.7320 H              1 <1>                0.0000
     76 H76          1.9161  -1.9159   3.4860 H              1 <1>                0.0000
     77 H77          0.4894  -3.9977   4.0235 H              1 <1>                0.0000
     78 H78          4.1828  -3.8076   4.6533 H              1 <1>                0.0000
     79 H79          5.1278  -3.3852   6.8873 H              1 <1>                0.0000
     80 H80          3.6316  -3.0709   8.8178 H              1 <1>                0.0000
     81 H81          0.0148  -3.6934   8.6944 H              1 <1>                0.0000
     82 H82          1.4280  -3.4728   9.7538 H              1 <1>                0.0000
     83 H83          0.2454  -3.5960   6.2786 H              1 <1>                0.0000
@<TRIPOS>BOND
    1    1    2 1     
    2    1   48 1     
    3    1   49 1     
    4    1   50 1     
    5    2    3 1     
    6    2    4 1     
    7    2   51 1     
    8    3   52 1     
    9    3   53 1     
   10    3   54 1     
   11    4    5 1     
   12    4   29 1     
   13    4   55 1     
   14    5    6 1     
   15    5   56 1     
   16    6    7 2     
   17    6    8 2     
   18    6    9 1     
   19    9   10 1     
   20    9   57 1     
   21    9   58 1     
   22   10   11 1     
   23   10   18 1     
   24   10   59 1     
   25   11   12 1     
   26   11   60 1     
   27   11   61 1     
   28   12   17 ar    
   29   12   13 ar    
   30   13   14 ar    
   31   13   62 1     
   32   14   15 ar    
   33   14   63 1     
   34   15   16 ar    
   35   15   64 1     
   36   16   17 ar    
   37   16   65 1     
   38   17   66 1     
   39   18   19 am    
   40   18   67 1     
   41   19   20 2     
   42   19   21 1     
   43   21   22 1     
   44   22   23 1     
   45   22   68 1     
   46   22   69 1     
   47   23   28 ar    
   48   23   24 ar    
   49   24   25 ar    
   50   24   70 1     
   51   25   26 ar    
   52   25   71 1     
   53   26   27 ar    
   54   26   72 1     
   55   27   28 ar    
   56   27   73 1     
   57   28   74 1     
   58   29   30 ar    
   59   29   31 ar    
   60   29   32 1     
   61   32   33 1     
   62   32   75 1     
   63   32   76 1     
   64   33   34 1     
   65   33   37 1     
   66   33   77 1     
   67   34   35 ar    
   68   34   36 ar    
   69   37   47 ar    
   70   37   38 ar    
   71   38   39 ar    
   72   38   78 1     
   73   39   40 ar    
   74   39   79 1     
   75   40   41 ar    
   76   40   80 1     
   77   41   42 1     
   78   41   47 ar    
   79   42   43 1     
   80   42   81 1     
   81   42   82 1     
   82   43   44 1     
   83   43   45 1     
   84   43   46 1     
   85   47   83 1     
@<TRIPOS>SUBSTRUCTURE
      1 ****           1
@<TRIPOS>SET
DONOR_HYDROGENS      STATIC     ATOMS    <user>   **** ""
5 56 67 44 45 46
ATOM$RED        STATIC     ATOMS    COLORGROUP SYSTEM
5 56 67 44 45 46
