#       Name:                987
#       Creating user name   gbret
#       Creation time:       Fri Sep  9 03:09:00 2016


#       File generated by GOLD software.
#

@<TRIPOS>MOLECULE
987
    60    63     1
SMALL
NO_CHARGES


@<TRIPOS>ATOM
      1 C1          -0.0713   2.2980  -2.7409 C.3            1 <1>                0.0000
      2 C2          -0.0385   0.7799  -2.5532 C.3            1 <1>                0.0000
      3 N3           0.7204   0.4538  -1.3433 N.am           1 <1>                0.0000
      4 C4           1.9371  -0.3668  -1.3250 C.3            1 <1>                0.0000
      5 C5           2.6076  -0.0793   0.0367 C.3            1 <1>                0.0000
      6 C6           1.3989   0.3541   0.8981 C.3            1 <1>                0.0000
      7 N7           1.7862   1.4197   1.8259 N.pl3          1 <1>                0.0000
      8 S8           1.1088   1.4902   3.3353 S.o2           1 <1>                0.0000
      9 O9           1.7080   2.5983   3.9928 O.2            1 <1>                0.0000
     10 O10         -0.2944   1.3613   3.1517 O.2            1 <1>                0.0000
     11 C11          1.6305   0.0517   4.2088 C.ar           1 <1>                0.0000
     12 C12          0.8650  -1.1108   4.1364 C.ar           1 <1>                0.0000
     13 C13          1.2398  -2.2390   4.7988 C.ar           1 <1>                0.0000
     14 C14          2.4160  -2.2354   5.5681 C.ar           1 <1>                0.0000
     15 C15          2.8352  -3.3811   6.2655 C.ar           1 <1>                0.0000
     16 C16          3.9810  -3.3407   7.0007 C.ar           1 <1>                0.0000
     17 Cl17         4.4958  -4.7580   7.8609 Cl             1 <1>                0.0000
     18 C18          4.7471  -2.1772   7.0722 C.ar           1 <1>                0.0000
     19 C19          4.3712  -1.0494   6.4103 C.ar           1 <1>                0.0000
     20 C20          3.1946  -1.0535   5.6414 C.ar           1 <1>                0.0000
     21 C21          2.7779   0.0906   4.9397 C.ar           1 <1>                0.0000
     22 C22          0.3951   0.8723  -0.1080 C.2            1 <1>                0.0000
     23 O23         -0.5673   1.5594   0.1616 O.2            1 <1>                0.0000
     24 C24         -1.4465   0.2599  -2.4184 C.2            1 <1>                0.0000
     25 O25         -1.8808  -0.0387  -1.3261 O.2            1 <1>                0.0000
     26 N26         -2.2232   0.1267  -3.5118 N.am           1 <1>                0.0000
     27 C27         -1.6771   0.3758  -4.8528 C.3            1 <1>                0.0000
     28 C28         -2.5690   1.3966  -5.5666 C.3            1 <1>                0.0000
     29 C29         -4.0156   0.8970  -5.5598 C.3            1 <1>                0.0000
     30 C30         -4.5020   0.7570  -4.1155 C.3            1 <1>                0.0000
     31 N31         -5.9005   0.3076  -4.1105 N.4            1 <1>                0.0000
     32 H32         -5.9687  -0.5850  -4.5762 H              1 <1>                0.0000
     33 H33         -6.2208   0.2154  -3.1582 H              1 <1>                0.0000
     34 H34         -6.4728   0.9836  -4.5939 H              1 <1>                0.0000
     35 C35         -3.6305  -0.2765  -3.3858 C.3            1 <1>                0.0000
     36 H36          0.9469   2.6870  -2.7341 H              1 <1>                0.0000
     37 H37         -0.5449   2.5362  -3.6933 H              1 <1>                0.0000
     38 H38         -0.6393   2.7523  -1.9290 H              1 <1>                0.0000
     39 H39          0.4385   0.3172  -3.4171 H              1 <1>                0.0000
     40 H40          1.6807  -1.4233  -1.4036 H              1 <1>                0.0000
     41 H41          2.5997  -0.0770  -2.1404 H              1 <1>                0.0000
     42 H42          3.0719  -0.9789   0.4406 H              1 <1>                0.0000
     43 H43          3.3348   0.7281  -0.0494 H              1 <1>                0.0000
     44 H44          0.9949  -0.4980   1.4447 H              1 <1>                0.0000
     45 H45          2.4395   2.0840   1.5560 H              1 <1>                0.0000
     46 H46         -0.0393  -1.1162   3.5459 H              1 <1>                0.0000
     47 H47          0.6363  -3.1323   4.7341 H              1 <1>                0.0000
     48 H48          2.2517  -4.2887   6.2189 H              1 <1>                0.0000
     49 H49          5.6519  -2.1714   7.6620 H              1 <1>                0.0000
     50 H50          4.9739  -0.1556   6.4754 H              1 <1>                0.0000
     51 H51          3.3633   0.9972   4.9831 H              1 <1>                0.0000
     52 H52         -0.6651   0.7714  -4.7675 H              1 <1>                0.0000
     53 H53         -1.6613  -0.5550  -5.4197 H              1 <1>                0.0000
     54 H54         -2.5124   2.3541  -5.0488 H              1 <1>                0.0000
     55 H55         -2.2310   1.5184  -6.5956 H              1 <1>                0.0000
     56 H56         -4.6484   1.6097  -6.0886 H              1 <1>                0.0000
     57 H57         -4.0674  -0.0722  -6.0560 H              1 <1>                0.0000
     58 H58         -4.4277   1.7206  -3.6116 H              1 <1>                0.0000
     59 H59         -3.7762  -1.2592  -3.8342 H              1 <1>                0.0000
     60 H60         -3.9071  -0.3088  -2.3319 H              1 <1>                0.0000
@<TRIPOS>BOND
    1    1    2 1     
    2    1   36 1     
    3    1   37 1     
    4    1   38 1     
    5    2    3 1     
    6    2   24 1     
    7    2   39 1     
    8    3   22 am    
    9    3    4 1     
   10    4    5 1     
   11    4   40 1     
   12    4   41 1     
   13    5    6 1     
   14    5   42 1     
   15    5   43 1     
   16    6    7 1     
   17    6   22 1     
   18    6   44 1     
   19    7    8 1     
   20    7   45 1     
   21    8    9 2     
   22    8   10 2     
   23    8   11 1     
   24   11   21 ar    
   25   11   12 ar    
   26   12   13 ar    
   27   12   46 1     
   28   13   14 ar    
   29   13   47 1     
   30   14   20 ar    
   31   14   15 ar    
   32   15   16 ar    
   33   15   48 1     
   34   16   17 1     
   35   16   18 ar    
   36   18   19 ar    
   37   18   49 1     
   38   19   20 ar    
   39   19   50 1     
   40   20   21 ar    
   41   21   51 1     
   42   22   23 2     
   43   24   25 2     
   44   24   26 am    
   45   26   35 1     
   46   26   27 1     
   47   27   28 1     
   48   27   52 1     
   49   27   53 1     
   50   28   29 1     
   51   28   54 1     
   52   28   55 1     
   53   29   30 1     
   54   29   56 1     
   55   29   57 1     
   56   30   31 1     
   57   30   35 1     
   58   30   58 1     
   59   31   32 1     
   60   31   33 1     
   61   31   34 1     
   62   35   59 1     
   63   35   60 1     
@<TRIPOS>SUBSTRUCTURE
      1 ****           1
@<TRIPOS>SET
DONOR_HYDROGENS      STATIC     ATOMS    <user>   **** ""
4 45 32 33 34
ATOM$RED        STATIC     ATOMS    COLORGROUP SYSTEM
4 45 32 33 34
