#	Name:			98E
#	Creating user name:	drognan
#	Creation time:		Wed Sep  5 12:09:46 2018


#	Modifying user name:	drognan
#	Modification time:	Wed Sep  5 12:09:46 2018

@<TRIPOS>MOLECULE
98E
  34   37    0    0    0
SMALL
NO_CHARGES


@<TRIPOS>ATOM
   1 C1             0.0593     1.6780    -0.0705 C.3     
   2 C2            -0.0623     0.1773    -0.0047 C.ar    
   3 C3            -0.0937    -0.5653    -1.1690 C.ar    
   4 C4            -0.2053    -1.9419    -1.1101 C.ar    
   5 C5            -0.2854    -2.5808     0.1152 C.ar    
   6 C6            -0.2546    -1.8432     1.2835 C.ar    
   7 C7            -0.1372    -0.4604     1.2268 C.ar    
   8 N8            -0.1057     0.2891     2.4070 N.am    
   9 C9            -0.8344    -0.0998     3.4720 C.2     
  10 O10           -1.4530    -1.1457     3.4359 O.2     
  11 C11           -0.8815     0.7453     4.6836 C.ar    
  12 C12           -0.1817     1.9559     4.7442 C.ar    
  13 N13           -0.2521     2.6802     5.8472 N.ar    
  14 C14           -0.9675     2.2773     6.8791 C.ar    
  15 N15           -1.6420     1.1442     6.8646 N.ar    
  16 C16           -1.6319     0.3605     5.8007 C.ar    
  17 C17           -1.0155     3.1390     8.1145 C.3     
  18 Cl18          -0.4254    -4.3098     0.1845 Cl      
  19 C19           -0.0067     0.1262    -2.5052 C.3     
  20 N20            1.3951     0.4554    -2.7958 N.3     
  21 C21            2.1964    -0.7631    -2.9720 C.3     
  22 C22            3.6764    -0.3843    -3.0921 C.3     
  23 N23            3.8178     0.6134    -4.1635 N.am    
  24 C24            2.9486     1.7993    -4.1292 C.3     
  25 H25            3.2259     2.4323    -3.2863 H       
  26 C26            1.4972     1.3345    -3.9682 C.3     
  27 C27            3.0993     2.5849    -5.4334 C.3     
  28 C28            4.7204     0.4456    -5.1502 C.2     
  29 O29            4.9014     1.3275    -5.9629 O.2     
  30 C30            5.5046    -0.8379    -5.2438 C.3     
  31 C31            4.5873    -2.0022    -5.6932 C.3     
  32 C32            5.5903    -3.0102    -6.3071 C.3     
  33 C33            6.6215    -2.1226    -7.0343 C.3     
  34 C34            6.5670    -0.7415    -6.3582 C.3     
@<TRIPOS>BOND
   1    1    2 1
   2    2    7 ar
   3    2    3 ar
   4    3    4 ar
   5    3   19 1
   6    4    5 ar
   7    5    6 ar
   8    5   18 1
   9    6    7 ar
  10    7    8 1
  11    8    9 am
  12    9   10 2
  13    9   11 1
  14   11   16 ar
  15   11   12 ar
  16   12   13 ar
  17   13   14 ar
  18   14   15 ar
  19   14   17 1
  20   15   16 ar
  21   19   20 1
  22   20   26 1
  23   20   21 1
  24   21   22 1
  25   22   23 1
  26   23   24 1
  27   23   28 am
  28   24   25 1
  29   24   26 1
  30   24   27 1
  31   28   29 2
  32   28   30 1
  33   30   34 1
  34   30   31 1
  35   31   32 1
  36   32   33 1
  37   33   34 1





