#       Name:                99Z
#       Creating user name   gbret
#       Creation time:       Fri Sep  9 03:10:33 2016


#       File generated by GOLD software.
#

@<TRIPOS>MOLECULE
99Z
    42    44     1
SMALL
NO_CHARGES


@<TRIPOS>ATOM
      1 C1           1.3708   0.9444  -4.2524 C.3            1 <1>                0.0000
      2 C2          -0.0063   0.6602  -4.7945 C.ar           1 <1>                0.0000
      3 C3          -0.1532   0.0274  -6.0119 C.ar           1 <1>                0.0000
      4 C4          -1.4166  -0.2346  -6.5106 C.ar           1 <1>                0.0000
      5 C5          -2.5406   0.1360  -5.7935 C.ar           1 <1>                0.0000
      6 C6          -2.4073   0.7697  -4.5755 C.ar           1 <1>                0.0000
      7 C7          -1.1355   1.0313  -4.0639 C.ar           1 <1>                0.0000
      8 C8          -0.9852   1.7104  -2.7574 C.2            1 <1>                0.0000
      9 O9          -1.1843   2.9100  -2.6674 O.2            1 <1>                0.0000
     10 C10         -0.6126   0.9717  -1.6191 C.2            1 <1>                0.0000
     11 S11         -0.1851  -0.7370  -1.5830 S.3            1 <1>                0.0000
     12 C12          0.0763  -0.6532   0.1034 C.2            1 <1>                0.0000
     13 N13          0.4693  -1.7152   0.8872 N.pl3          1 <1>                0.0000
     14 C14          0.5316  -1.5732   2.2764 C.ar           1 <1>                0.0000
     15 C15          1.4089  -2.3547   3.0175 C.ar           1 <1>                0.0000
     16 C16          1.4678  -2.2119   4.3898 C.ar           1 <1>                0.0000
     17 C17          0.6544  -1.2925   5.0264 C.ar           1 <1>                0.0000
     18 C18         -0.2201  -0.5128   4.2918 C.ar           1 <1>                0.0000
     19 C19         -0.2797  -0.6462   2.9185 C.ar           1 <1>                0.0000
     20 S20          0.7320  -1.1144   6.7777 S.o2           1 <1>                0.0000
     21 N21          1.8747   0.0392   7.1029 N.pl3          1 <1>                0.0000
     22 O22         -0.5161  -0.5678   7.1811 O.2            1 <1>                0.0000
     23 O23          1.2436  -2.3398   7.2834 O.2            1 <1>                0.0000
     24 N24         -0.1463   0.5504   0.5474 N.2            1 <1>                0.0000
     25 C25         -0.5103   1.4577  -0.3282 C.2            1 <1>                0.0000
     26 N26         -0.7777   2.7744   0.0101 N.pl3          1 <1>                0.0000
     27 H27          1.6647   0.1463  -3.5707 H              1 <1>                0.0000
     28 H28          2.0818   0.9983  -5.0768 H              1 <1>                0.0000
     29 H29          1.3619   1.8941  -3.7176 H              1 <1>                0.0000
     30 H30          0.7201  -0.2637  -6.5767 H              1 <1>                0.0000
     31 H31         -1.5263  -0.7301  -7.4639 H              1 <1>                0.0000
     32 H32         -3.5243  -0.0710  -6.1884 H              1 <1>                0.0000
     33 H33         -3.2853   1.0591  -4.0171 H              1 <1>                0.0000
     34 H34          0.7030  -2.5617   0.4753 H              1 <1>                0.0000
     35 H35          2.0439  -3.0735   2.5210 H              1 <1>                0.0000
     36 H36          2.1497  -2.8193   4.9665 H              1 <1>                0.0000
     37 H37         -0.8540   0.2043   4.7920 H              1 <1>                0.0000
     38 H38         -0.9629  -0.0370   2.3453 H              1 <1>                0.0000
     39 H39          2.3503   0.4695   6.3752 H              1 <1>                0.0000
     40 H40          2.0684   0.2846   8.0212 H              1 <1>                0.0000
     41 H41         -1.0517   3.4049  -0.6742 H              1 <1>                0.0000
     42 H42         -0.6910   3.0657   0.9313 H              1 <1>                0.0000
@<TRIPOS>BOND
    1    1    2 1     
    2    1   27 1     
    3    1   28 1     
    4    1   29 1     
    5    2    7 ar    
    6    2    3 ar    
    7    3    4 ar    
    8    3   30 1     
    9    4    5 ar    
   10    4   31 1     
   11    5    6 ar    
   12    5   32 1     
   13    6    7 ar    
   14    6   33 1     
   15    7    8 1     
   16    8    9 2     
   17    8   10 1     
   18   10   25 2     
   19   10   11 1     
   20   11   12 1     
   21   12   13 1     
   22   12   24 2     
   23   13   14 1     
   24   13   34 1     
   25   14   19 ar    
   26   14   15 ar    
   27   15   16 ar    
   28   15   35 1     
   29   16   17 ar    
   30   16   36 1     
   31   17   18 ar    
   32   17   20 1     
   33   18   19 ar    
   34   18   37 1     
   35   19   38 1     
   36   20   21 1     
   37   20   22 2     
   38   20   23 2     
   39   21   39 1     
   40   21   40 1     
   41   24   25 1     
   42   25   26 1     
   43   26   41 1     
   44   26   42 1     
@<TRIPOS>SUBSTRUCTURE
      1 ****           1
@<TRIPOS>SET
DONOR_HYDROGENS      STATIC     ATOMS    <user>   **** ""
5 34 39 40 41 42
ATOM$RED        STATIC     ATOMS    COLORGROUP SYSTEM
5 34 39 40 41 42
