#	Name:			9HJ
#	Creating user name:	drognan
#	Creation time:		Wed Sep  5 12:09:46 2018


#	Modifying user name:	drognan
#	Modification time:	Wed Sep  5 12:09:46 2018

@<TRIPOS>MOLECULE
9HJ
  27   29    0    0    0
SMALL
NO_CHARGES


@<TRIPOS>ATOM
   1 C1            -0.0187     1.5258     0.0104 C.3     
   2 C2             0.0021    -0.0041     0.0020 C.3     
   3 C3             0.7421    -0.5109     1.2415 C.3     
   4 N4             0.7619    -1.9757     1.2335 N.pl3   
   5 C5             1.8644    -2.6898     0.5847 C.3     
   6 C6            -0.2607    -2.6850     1.8387 C.ar    
   7 N7            -1.2428    -2.0148     2.4103 N.ar    
   8 C8            -2.2527    -2.6668     3.0076 C.ar    
   9 C9            -3.3097    -1.9843     3.6225 C.ar    
  10 C10           -4.3227    -2.6999     4.2217 C.ar    
  11 C11           -4.3054    -4.1015     4.2222 C.ar    
  12 C12           -3.2843    -4.7870     3.6285 C.ar    
  13 C13           -2.2423    -4.0833     3.0117 C.ar    
  14 C14           -1.1621    -4.7479     2.3824 C.ar    
  15 N15           -0.2155    -4.0138     1.8153 N.ar    
  16 N16           -1.0991    -6.1256     2.3558 N.pl3   
  17 C17            0.0268    -6.7948     1.6997 C.3     
  18 C18            1.1945    -6.9145     2.6830 C.3     
  19 C19            2.3451    -7.6680     2.0118 C.3     
  20 N20            1.8863    -9.0021     1.6042 N.3     
  21 C21            0.7967    -8.9124     0.6239 C.3     
  22 C22           -0.4001    -8.1960     1.2536 C.3     
  23 C23            3.0000    -9.8048     1.0814 C.3     
  24 O24           -5.3164    -4.7864     4.8212 O.3     
  25 C25           -5.2421    -6.2131     4.7885 C.3     
  26 O26           -5.3493    -2.0403     4.8188 O.3     
  27 C27           -5.3097    -0.6123     4.7853 C.3     
@<TRIPOS>BOND
   1    1    2 1
   2    2    3 1
   3    3    4 1
   4    4    5 1
   5    4    6 1
   6    6   15 ar
   7    6    7 ar
   8    7    8 ar
   9    8   13 ar
  10    8    9 ar
  11    9   10 ar
  12   10   11 ar
  13   10   26 1
  14   11   12 ar
  15   11   24 1
  16   12   13 ar
  17   13   14 ar
  18   14   15 ar
  19   14   16 1
  20   16   17 1
  21   17   22 1
  22   17   18 1
  23   18   19 1
  24   19   20 1
  25   20   21 1
  26   20   23 1
  27   21   22 1
  28   24   25 1
  29   26   27 1





