#       Name:                9PC
#       Creating user name   gbret
#       Creation time:       Fri Sep  9 03:15:25 2016


#       File generated by GOLD software.
#

@<TRIPOS>MOLECULE
9PC
    31    33     1
SMALL
NO_CHARGES


@<TRIPOS>ATOM
      1 N1           3.9694   3.3127  -2.7185 N.am           1 <1>                0.0000
      2 C2           3.9877   1.9650  -2.7259 C.2            1 <1>                0.0000
      3 O3           5.0487   1.3715  -2.7392 O.2            1 <1>                0.0000
      4 C4           2.7200   1.2099  -2.7178 C.ar           1 <1>                0.0000
      5 C5           2.1074   0.8516  -3.9239 C.ar           1 <1>                0.0000
      6 F6           2.6758   1.1965  -5.1000 F              1 <1>                0.0000
      7 C7           0.9207   0.1442  -3.9103 C.ar           1 <1>                0.0000
      8 C8           0.3355  -0.2115  -2.7084 C.ar           1 <1>                0.0000
      9 C9           0.9339   0.1385  -1.5075 C.ar           1 <1>                0.0000
     10 O10          0.3521  -0.2155  -0.3302 O.3            1 <1>                0.0000
     11 C11         -0.8736  -0.9463  -0.4062 C.3            1 <1>                0.0000
     12 C12         -1.3656  -1.2480   0.9859 C.2            1 <1>                0.0000
     13 N13         -2.1470  -0.4932   1.6638 N.2            1 <1>                0.0000
     14 C14         -2.5019  -0.8958   2.8977 C.ar           1 <1>                0.0000
     15 C15         -3.3406  -0.2563   3.8374 C.ar           1 <1>                0.0000
     16 C16         -3.5618  -0.8666   5.0527 C.ar           1 <1>                0.0000
     17 Cl17        -4.5867  -0.1129   6.2339 Cl             1 <1>                0.0000
     18 C18         -2.9615  -2.0868   5.3273 C.ar           1 <1>                0.0000
     19 N19         -2.1836  -2.6694   4.4426 N.ar           1 <1>                0.0000
     20 C20         -1.9362  -2.1252   3.2551 C.ar           1 <1>                0.0000
     21 S21         -0.9536  -2.6893   1.9044 S.3            1 <1>                0.0000
     22 C22          2.1281   0.8440  -1.5054 C.ar           1 <1>                0.0000
     23 F23          2.7120   1.1849  -0.3358 F              1 <1>                0.0000
     24 H24          4.8028   3.8090  -2.7279 H              1 <1>                0.0000
     25 H25          3.1230   3.7862  -2.7079 H              1 <1>                0.0000
     26 H26          0.4481  -0.1318  -4.8413 H              1 <1>                0.0000
     27 H27         -0.5924  -0.7641  -2.7054 H              1 <1>                0.0000
     28 H28         -1.6190  -0.3515  -0.9341 H              1 <1>                0.0000
     29 H29         -0.7072  -1.8801  -0.9431 H              1 <1>                0.0000
     30 H30         -3.7998   0.6938   3.6075 H              1 <1>                0.0000
     31 H31         -3.1354  -2.5639   6.2805 H              1 <1>                0.0000
@<TRIPOS>BOND
    1    1    2 am    
    2    1   24 1     
    3    1   25 1     
    4    2    3 2     
    5    2    4 1     
    6    4   22 ar    
    7    4    5 ar    
    8    5    6 1     
    9    5    7 ar    
   10    7    8 ar    
   11    7   26 1     
   12    8    9 ar    
   13    8   27 1     
   14    9   10 1     
   15    9   22 ar    
   16   10   11 1     
   17   11   12 1     
   18   11   28 1     
   19   11   29 1     
   20   12   21 1     
   21   12   13 2     
   22   13   14 1     
   23   14   20 ar    
   24   14   15 ar    
   25   15   16 ar    
   26   15   30 1     
   27   16   17 1     
   28   16   18 ar    
   29   18   19 ar    
   30   18   31 1     
   31   19   20 ar    
   32   20   21 1     
   33   22   23 1     
@<TRIPOS>SUBSTRUCTURE
      1 ****           1
@<TRIPOS>SET
DONOR_HYDROGENS      STATIC     ATOMS    <user>   **** ""
2 24 25
ATOM$RED        STATIC     ATOMS    COLORGROUP SYSTEM
2 24 25
