#       Name:                9RM
#       Creating user name   gbret
#       Creation time:       Fri Sep  9 03:16:06 2016


#       File generated by GOLD software.
#

@<TRIPOS>MOLECULE
9RM
    28    29     1
SMALL
NO_CHARGES


@<TRIPOS>ATOM
      1 C1           2.1284   1.2593  -2.4736 C.3            1 <1>                0.0000
      2 C2           0.9411   0.3911  -2.8012 C.2            1 <1>                0.0000
      3 N3           0.8856  -0.2516  -3.9541 N.2            1 <1>                0.0000
      4 N4          -0.1164  -0.9979  -4.2563 N.2            1 <1>                0.0000
      5 C5          -1.1486  -1.1606  -3.4223 C.2            1 <1>                0.0000
      6 O6          -2.0816  -1.8771  -3.7433 O.2            1 <1>                0.0000
      7 N7          -1.1618  -0.5353  -2.2264 N.am           1 <1>                0.0000
      8 H8          -1.9075  -0.6493  -1.6167 H              1 <1>                0.0000
      9 C9          -0.1007   0.2568  -1.8892 C.2            1 <1>                0.0000
     10 N10         -0.0685   0.9120  -0.6854 N.pl3          1 <1>                0.0000
     11 C11         -0.1639   0.1885   0.5069 C.ar           1 <1>                0.0000
     12 C12         -0.1458  -1.2005   0.4818 C.ar           1 <1>                0.0000
     13 C13         -0.2403  -1.9120   1.6614 C.ar           1 <1>                0.0000
     14 C14         -0.3529  -1.2437   2.8670 C.ar           1 <1>                0.0000
     15 C15         -0.3712   0.1387   2.8955 C.ar           1 <1>                0.0000
     16 C16         -0.2713   0.8567   1.7198 C.ar           1 <1>                0.0000
     17 C17         -0.4945   0.8627   4.2114 C.3            1 <1>                0.0000
     18 F18         -0.5747  -0.0699   5.2511 F              1 <1>                0.0000
     19 F19          0.6262   1.6782   4.4018 F              1 <1>                0.0000
     20 F20         -1.6495   1.6521   4.2029 F              1 <1>                0.0000
     21 H21          2.8889   0.6609  -1.9720 H              1 <1>                0.0000
     22 H22          2.5406   1.6736  -3.3938 H              1 <1>                0.0000
     23 H23          1.8146   2.0717  -1.8182 H              1 <1>                0.0000
     24 H24          0.0205   1.8776  -0.6610 H              1 <1>                0.0000
     25 H25         -0.0582  -1.7230  -0.4593 H              1 <1>                0.0000
     26 H26         -0.2266  -2.9918   1.6425 H              1 <1>                0.0000
     27 H27         -0.4270  -1.8026   3.7881 H              1 <1>                0.0000
     28 H28         -0.2853   1.9363   1.7428 H              1 <1>                0.0000
@<TRIPOS>BOND
    1    1    2 1     
    2    1   21 1     
    3    1   22 1     
    4    1   23 1     
    5    2    9 2     
    6    2    3 1     
    7    3    4 2     
    8    4    5 1     
    9    5    6 2     
   10    5    7 am    
   11    7    8 1     
   12    7    9 1     
   13    9   10 1     
   14   10   11 1     
   15   10   24 1     
   16   11   16 ar    
   17   11   12 ar    
   18   12   13 ar    
   19   12   25 1     
   20   13   14 ar    
   21   13   26 1     
   22   14   15 ar    
   23   14   27 1     
   24   15   16 ar    
   25   15   17 1     
   26   16   28 1     
   27   17   18 1     
   28   17   19 1     
   29   17   20 1     
@<TRIPOS>SUBSTRUCTURE
      1 ****           1
@<TRIPOS>SET
DONOR_HYDROGENS      STATIC     ATOMS    <user>   **** ""
2 8 24
ATOM$RED        STATIC     ATOMS    COLORGROUP SYSTEM
2 8 24
