#       Name:                A2N
#       Creating user name   gbret
#       Creation time:       Fri Sep  9 03:21:02 2016


#       File generated by GOLD software.
#

@<TRIPOS>MOLECULE
A2N
    63    66     1
SMALL
NO_CHARGES


@<TRIPOS>ATOM
      1 C1           4.1662   7.3251  -5.7967 C.3            1 <1>                0.0000
      2 C2           4.2525   5.8422  -5.5426 C.2            1 <1>                0.0000
      3 O3           5.3314   5.2881  -5.5461 O.2            1 <1>                0.0000
      4 N4           3.1308   5.1317  -5.3116 N.am           1 <1>                0.0000
      5 C5           3.2147   3.6901  -5.0646 C.3            1 <1>                0.0000
      6 C6           3.3701   3.4079  -3.5538 C.3            1 <1>                0.0000
      7 O7           3.9368   4.5404  -2.8919 O.3            1 <1>                0.0000
      8 O8           2.0256   3.1709  -3.0825 O.3            1 <1>                0.0000
      9 C9           1.3951   2.3796  -4.1132 C.3            1 <1>                0.0000
     10 C10         -0.1278   2.4835  -4.0076 C.3            1 <1>                0.0000
     11 O11         -0.5641   1.8685  -2.7938 O.3            1 <1>                0.0000
     12 P12         -2.1116   1.7937  -2.3557 P.3            1 <1>                0.0000
     13 O13         -2.6443   3.2215  -2.1014 O.co2          1 <1>                0.0000
     14 O14         -2.9344   1.1301  -3.4825 O.co2          1 <1>                0.0000
     15 O15         -2.2464   0.9227  -1.0084 O.3            1 <1>                0.0000
     16 P16         -3.4629   0.1439  -0.2972 P.3            1 <1>                0.0000
     17 O17         -4.4075   1.1666   0.3729 O.co2          1 <1>                0.0000
     18 O18         -4.2461  -0.6641  -1.3558 O.co2          1 <1>                0.0000
     19 O19         -2.8787  -0.8586   0.8190 O.3            1 <1>                0.0000
     20 C20         -3.6996  -1.7687   1.5538 C.3            1 <1>                0.0000
     21 C21         -2.8304  -2.5679   2.5268 C.3            1 <1>                0.0000
     22 O22         -2.3465  -1.7141   3.5863 O.3            1 <1>                0.0000
     23 C23         -1.9892  -2.6086   4.6625 C.3            1 <1>                0.0000
     24 C24         -3.1092  -3.6723   4.6799 C.3            1 <1>                0.0000
     25 O25         -4.1219  -3.3178   5.6238 O.3            1 <1>                0.0000
     26 C26         -3.6753  -3.6450   3.2426 C.3            1 <1>                0.0000
     27 O27         -5.0549  -3.2727   3.2548 O.3            1 <1>                0.0000
     28 N28         -0.6932  -3.2369   4.3945 N.pl3          1 <1>                0.0000
     29 C29         -0.0731  -3.3219   3.1835 C.2            1 <1>                0.0000
     30 N30          1.0629  -3.9444   3.3086 N.2            1 <1>                0.0000
     31 C31          1.2435  -4.2973   4.6039 C.ar           1 <1>                0.0000
     32 C32          2.2529  -4.9703   5.3135 C.ar           1 <1>                0.0000
     33 N33          3.3838  -5.4357   4.6657 N.pl3          1 <1>                0.0000
     34 N34          2.0963  -5.1490   6.6209 N.ar           1 <1>                0.0000
     35 C35          1.0205  -4.7079   7.2475 C.ar           1 <1>                0.0000
     36 N36          0.0506  -4.0729   6.6244 N.ar           1 <1>                0.0000
     37 C37          0.1218  -3.8424   5.3172 C.ar           1 <1>                0.0000
     38 C38          1.8855   2.9981  -5.4411 C.3            1 <1>                0.0000
     39 O39          0.9422   3.9557  -5.9260 O.3            1 <1>                0.0000
     40 H40          5.1670   7.7244  -5.9613 H              1 <1>                0.0000
     41 H41          3.5526   7.5075  -6.6789 H              1 <1>                0.0000
     42 H42          3.7167   7.8160  -4.9335 H              1 <1>                0.0000
     43 H43          2.2680   5.5748  -5.3088 H              1 <1>                0.0000
     44 H44          4.0433   3.2554  -5.6237 H              1 <1>                0.0000
     45 H45          3.9908   2.5262  -3.3944 H              1 <1>                0.0000
     46 H46          4.0575   4.4200  -1.9400 H              1 <1>                0.0000
     47 H47          1.7098   1.3387  -4.0383 H              1 <1>                0.0000
     48 H48         -0.4213   3.5332  -4.0090 H              1 <1>                0.0000
     49 H49         -0.5862   1.9769  -4.8569 H              1 <1>                0.0000
     50 H50         -4.4511  -1.2106   2.1122 H              1 <1>                0.0000
     51 H51         -4.1935  -2.4518   0.8626 H              1 <1>                0.0000
     52 H52         -1.9963  -3.0294   1.9982 H              1 <1>                0.0000
     53 H53         -1.9622  -2.0704   5.6100 H              1 <1>                0.0000
     54 H54         -2.6990  -4.6551   4.9125 H              1 <1>                0.0000
     55 H55         -4.8503  -3.9517   5.6759 H              1 <1>                0.0000
     56 H56         -3.5447  -4.6146   2.7621 H              1 <1>                0.0000
     57 H57         -5.6229  -3.8838   3.7438 H              1 <1>                0.0000
     58 H58         -0.4668  -2.9310   2.2569 H              1 <1>                0.0000
     59 H59          3.4867  -5.2988   3.7110 H              1 <1>                0.0000
     60 H60          4.0735  -5.8986   5.1665 H              1 <1>                0.0000
     61 H61          0.9334  -4.8748   8.3110 H              1 <1>                0.0000
     62 H62          2.0574   2.2196  -6.1845 H              1 <1>                0.0000
     63 H63          0.0705   3.5853  -6.1208 H              1 <1>                0.0000
@<TRIPOS>BOND
    1    1    2 1     
    2    1   40 1     
    3    1   41 1     
    4    1   42 1     
    5    2    3 2     
    6    2    4 am    
    7    4    5 1     
    8    4   43 1     
    9    5   38 1     
   10    5    6 1     
   11    5   44 1     
   12    6    7 1     
   13    6    8 1     
   14    6   45 1     
   15    7   46 1     
   16    8    9 1     
   17    9   10 1     
   18    9   38 1     
   19    9   47 1     
   20   10   11 1     
   21   10   48 1     
   22   10   49 1     
   23   11   12 1     
   24   12   13 ar    
   25   12   14 ar    
   26   12   15 1     
   27   15   16 1     
   28   16   17 ar    
   29   16   18 ar    
   30   16   19 1     
   31   19   20 1     
   32   20   21 1     
   33   20   50 1     
   34   20   51 1     
   35   21   26 1     
   36   21   22 1     
   37   21   52 1     
   38   22   23 1     
   39   23   24 1     
   40   23   28 1     
   41   23   53 1     
   42   24   25 1     
   43   24   26 1     
   44   24   54 1     
   45   25   55 1     
   46   26   27 1     
   47   26   56 1     
   48   27   57 1     
   49   28   37 1     
   50   28   29 1     
   51   29   30 2     
   52   29   58 1     
   53   30   31 1     
   54   31   37 ar    
   55   31   32 ar    
   56   32   33 1     
   57   32   34 ar    
   58   33   59 1     
   59   33   60 1     
   60   34   35 ar    
   61   35   36 ar    
   62   35   61 1     
   63   36   37 ar    
   64   38   39 1     
   65   38   62 1     
   66   39   63 1     
@<TRIPOS>SUBSTRUCTURE
      1 ****           1
@<TRIPOS>SET
DONOR_HYDROGENS      STATIC     ATOMS    <user>   **** ""
7 43 46 55 57 59 60 63
ATOM$RED        STATIC     ATOMS    COLORGROUP SYSTEM
7 43 46 55 57 59 60 63
