#       Name:                A4D
#       Creating user name   gbret
#       Creation time:       Fri Sep  9 03:23:52 2016


#       File generated by GOLD software.
#

@<TRIPOS>MOLECULE
A4D
    32    34     1
SMALL
NO_CHARGES


@<TRIPOS>ATOM
      1 N1          -2.9989   4.4989  -0.3748 N.pl3          1 <1>                0.0000
      2 C2          -2.9801   3.1151  -0.3824 C.ar           1 <1>                0.0000
      3 N3          -4.1127   2.4197  -0.3808 N.ar           1 <1>                0.0000
      4 C4          -4.1045   1.0993  -0.3880 C.ar           1 <1>                0.0000
      5 N5          -2.9894   0.3996  -0.3966 N.ar           1 <1>                0.0000
      6 C6          -1.8080   1.0082  -0.3988 C.ar           1 <1>                0.0000
      7 N7          -0.5019   0.5883  -0.4064 N.pl3          1 <1>                0.0000
      8 C8           0.2852   1.7012  -0.4040 C.2            1 <1>                0.0000
      9 N9          -0.4566   2.7705  -0.3955 N.2            1 <1>                0.0000
     10 C10         -1.7633   2.4127  -0.3978 C.ar           1 <1>                0.0000
     11 C11         -0.0382  -0.8014  -0.4149 C.3            1 <1>                0.0000
     12 O12          1.3228  -0.8743  -0.8926 O.3            1 <1>                0.0000
     13 C13          1.8297  -2.1362  -0.4062 C.3            1 <1>                0.0000
     14 C14          3.3595  -2.1242  -0.3878 C.3            1 <1>                0.0000
     15 S15          3.9827  -1.8883  -2.0750 S.3            1 <1>                0.0000
     16 C16          1.2756  -2.2566   1.0308 C.3            1 <1>                0.0000
     17 O17          2.2309  -1.7747   1.9779 O.3            1 <1>                0.0000
     18 C18          0.0185  -1.3583   1.0249 C.3            1 <1>                0.0000
     19 O19          0.1591  -0.2941   1.9682 O.3            1 <1>                0.0000
     20 H20         -2.1655   4.9953  -0.3801 H              1 <1>                0.0000
     21 H21         -3.8454   4.9724  -0.3682 H              1 <1>                0.0000
     22 H22         -5.0479   0.5736  -0.3864 H              1 <1>                0.0000
     23 H23          1.3652   1.6964  -0.4080 H              1 <1>                0.0000
     24 H24         -0.6927  -1.4152  -1.0337 H              1 <1>                0.0000
     25 H25          1.4648  -2.9557  -1.0253 H              1 <1>                0.0000
     26 H26          3.7089  -1.3090   0.2458 H              1 <1>                0.0000
     27 H27          3.7256  -3.0726   0.0054 H              1 <1>                0.0000
     28 H28          5.3173  -1.8984  -1.9088 H              1 <1>                0.0000
     29 H29          1.0081  -3.2899   1.2516 H              1 <1>                0.0000
     30 H30          3.0639  -2.2659   1.9810 H              1 <1>                0.0000
     31 H31         -0.8727  -1.9471   1.2420 H              1 <1>                0.0000
     32 H32          0.2597  -0.5903   2.8832 H              1 <1>                0.0000
@<TRIPOS>BOND
    1    1    2 1     
    2    1   20 1     
    3    1   21 1     
    4    2   10 ar    
    5    2    3 ar    
    6    3    4 ar    
    7    4    5 ar    
    8    4   22 1     
    9    5    6 ar    
   10    6   10 ar    
   11    6    7 1     
   12    7    8 1     
   13    7   11 1     
   14    8    9 2     
   15    8   23 1     
   16    9   10 1     
   17   11   18 1     
   18   11   12 1     
   19   11   24 1     
   20   12   13 1     
   21   13   14 1     
   22   13   16 1     
   23   13   25 1     
   24   14   15 1     
   25   14   26 1     
   26   14   27 1     
   27   15   28 1     
   28   16   17 1     
   29   16   18 1     
   30   16   29 1     
   31   17   30 1     
   32   18   19 1     
   33   18   31 1     
   34   19   32 1     
@<TRIPOS>SUBSTRUCTURE
      1 ****           1
@<TRIPOS>SET
DONOR_HYDROGENS      STATIC     ATOMS    <user>   **** ""
4 20 21 30 32
ATOM$RED        STATIC     ATOMS    COLORGROUP SYSTEM
4 20 21 30 32
