#       Name:                A69
#       Creating user name   gbret
#       Creation time:       Fri Sep  9 03:26:03 2016


#       File generated by GOLD software.
#

@<TRIPOS>MOLECULE
A69
    76    80     1
SMALL
NO_CHARGES


@<TRIPOS>ATOM
      1 O1          -0.3889   1.0809   0.1757 O.3            1 <1>                0.0000
      2 C2          -0.3695  -0.3480   0.1678 C.3            1 <1>                0.0000
      3 C3           0.3466  -0.8414  -1.0910 C.3            1 <1>                0.0000
      4 N4          -0.3619  -0.3561  -2.2779 N.pl3          1 <1>                0.0000
      5 C5          -0.0744   0.9791  -2.8077 C.3            1 <1>                0.0000
      6 C6           1.1366   0.9079  -3.7401 C.3            1 <1>                0.0000
      7 C7           1.4368   2.3024  -4.2935 C.3            1 <1>                0.0000
      8 C8           2.6296   2.2322  -5.2119 C.ar           1 <1>                0.0000
      9 C9           3.9037   2.4061  -4.7046 C.ar           1 <1>                0.0000
     10 C10          4.9978   2.3417  -5.5470 C.ar           1 <1>                0.0000
     11 C11          4.8178   2.1031  -6.8967 C.ar           1 <1>                0.0000
     12 C12          3.5438   1.9284  -7.4038 C.ar           1 <1>                0.0000
     13 C13          2.4500   1.9885  -6.5607 C.ar           1 <1>                0.0000
     14 S14         -1.4879  -1.3168  -3.0205 S.o2           1 <1>                0.0000
     15 O15         -1.4698  -0.9654  -4.3973 O.2            1 <1>                0.0000
     16 O16         -1.2585  -2.6389  -2.5528 O.2            1 <1>                0.0000
     17 C17         -3.0684  -0.8387  -2.4058 C.ar           1 <1>                0.0000
     18 C18         -3.5862  -1.4516  -1.2733 C.ar           1 <1>                0.0000
     19 C19         -4.8061  -1.0953  -0.7842 C.ar           1 <1>                0.0000
     20 C20         -5.5662  -0.0940  -1.4219 C.ar           1 <1>                0.0000
     21 N21         -6.7784   0.3990  -1.1040 N.2            1 <1>                0.0000
     22 C22         -7.2639   1.3183  -1.8495 C.2            1 <1>                0.0000
     23 S23         -6.2037   1.7135  -3.1270 S.3            1 <1>                0.0000
     24 C24         -5.0383   0.5202  -2.5628 C.ar           1 <1>                0.0000
     25 C25         -3.7860   0.1463  -3.0459 C.ar           1 <1>                0.0000
     26 C26          0.3705  -0.8548   1.4073 C.3            1 <1>                0.0000
     27 C27          1.7642  -0.2261   1.4619 C.3            1 <1>                0.0000
     28 C28          2.5374  -0.8173   2.6124 C.ar           1 <1>                0.0000
     29 C29          2.4713  -0.2318   3.8629 C.ar           1 <1>                0.0000
     30 C30          3.1805  -0.7741   4.9183 C.ar           1 <1>                0.0000
     31 C31          3.9553  -1.9021   4.7234 C.ar           1 <1>                0.0000
     32 C32          4.0206  -2.4882   3.4731 C.ar           1 <1>                0.0000
     33 C33          3.3081  -1.9484   2.4187 C.ar           1 <1>                0.0000
     34 N34         -0.3799  -0.4840   2.6097 N.am           1 <1>                0.0000
     35 C35         -0.2404  -1.2046   3.7401 C.2            1 <1>                0.0000
     36 O36          0.5081  -2.1621   3.7620 O.2            1 <1>                0.0000
     37 C37         -0.9977  -0.8303   4.9536 C.ar           1 <1>                0.0000
     38 C38         -1.8623   0.2655   4.9296 C.ar           1 <1>                0.0000
     39 C39         -2.5678   0.6116   6.0635 C.ar           1 <1>                0.0000
     40 C40         -2.4215  -0.1238   7.2255 C.ar           1 <1>                0.0000
     41 C41         -1.5641  -1.2149   7.2590 C.ar           1 <1>                0.0000
     42 O42         -1.4243  -1.9340   8.4037 O.3            1 <1>                0.0000
     43 C43         -0.8551  -1.5743   6.1248 C.ar           1 <1>                0.0000
     44 H44          0.4890   1.4862   0.1695 H              1 <1>                0.0000
     45 H45         -1.3921  -0.7253   0.1756 H              1 <1>                0.0000
     46 H46          1.3692  -0.4641  -1.0987 H              1 <1>                0.0000
     47 H47          0.3614  -1.9313  -1.0970 H              1 <1>                0.0000
     48 H48         -0.9390   1.3439  -3.3622 H              1 <1>                0.0000
     49 H49          0.1414   1.6585  -1.9831 H              1 <1>                0.0000
     50 H50          2.0011   0.5431  -3.1856 H              1 <1>                0.0000
     51 H51          0.9207   0.2285  -4.5647 H              1 <1>                0.0000
     52 H52          0.5723   2.6672  -4.8480 H              1 <1>                0.0000
     53 H53          1.6527   2.9818  -3.4689 H              1 <1>                0.0000
     54 H54          4.0443   2.5925  -3.6501 H              1 <1>                0.0000
     55 H55          5.9932   2.4782  -5.1508 H              1 <1>                0.0000
     56 H56          5.6726   2.0535  -7.5550 H              1 <1>                0.0000
     57 H57          3.4032   1.7423  -8.4583 H              1 <1>                0.0000
     58 H58          1.4546   1.8520  -6.9569 H              1 <1>                0.0000
     59 H59         -3.0150  -2.2205  -0.7743 H              1 <1>                0.0000
     60 H60         -5.1940  -1.5833   0.0978 H              1 <1>                0.0000
     61 H61         -8.2247   1.7853  -1.6907 H              1 <1>                0.0000
     62 H62         -3.3800   0.6266  -3.9239 H              1 <1>                0.0000
     63 H63          0.4630  -1.9397   1.3570 H              1 <1>                0.0000
     64 H64          2.2905  -0.4276   0.5288 H              1 <1>                0.0000
     65 H65          1.6718   0.8510   1.6015 H              1 <1>                0.0000
     66 H66          1.8660   0.6495   4.0153 H              1 <1>                0.0000
     67 H67          3.1295  -0.3162   5.8952 H              1 <1>                0.0000
     68 H68          4.5099  -2.3254   5.5478 H              1 <1>                0.0000
     69 H69          4.6263  -3.3693   3.3207 H              1 <1>                0.0000
     70 H70          3.3591  -2.4062   1.4418 H              1 <1>                0.0000
     71 H71         -0.9771   0.2801   2.5923 H              1 <1>                0.0000
     72 H72         -1.9786   0.8422   4.0239 H              1 <1>                0.0000
     73 H73         -3.2361   1.4598   6.0438 H              1 <1>                0.0000
     74 H74         -2.9761   0.1521   8.1103 H              1 <1>                0.0000
     75 H75         -2.0461  -2.6702   8.4842 H              1 <1>                0.0000
     76 H76         -0.1878  -2.4231   6.1495 H              1 <1>                0.0000
@<TRIPOS>BOND
    1    1    2 1     
    2    1   44 1     
    3    2    3 1     
    4    2   26 1     
    5    2   45 1     
    6    3    4 1     
    7    3   46 1     
    8    3   47 1     
    9    4    5 1     
   10    4   14 1     
   11    5    6 1     
   12    5   48 1     
   13    5   49 1     
   14    6    7 1     
   15    6   50 1     
   16    6   51 1     
   17    7    8 1     
   18    7   52 1     
   19    7   53 1     
   20    8   13 ar    
   21    8    9 ar    
   22    9   10 ar    
   23    9   54 1     
   24   10   11 ar    
   25   10   55 1     
   26   11   12 ar    
   27   11   56 1     
   28   12   13 ar    
   29   12   57 1     
   30   13   58 1     
   31   14   15 2     
   32   14   16 2     
   33   14   17 1     
   34   17   25 ar    
   35   17   18 ar    
   36   18   19 ar    
   37   18   59 1     
   38   19   20 ar    
   39   19   60 1     
   40   20   24 ar    
   41   20   21 1     
   42   21   22 2     
   43   22   23 1     
   44   22   61 1     
   45   23   24 1     
   46   24   25 ar    
   47   25   62 1     
   48   26   27 1     
   49   26   34 1     
   50   26   63 1     
   51   27   28 1     
   52   27   64 1     
   53   27   65 1     
   54   28   33 ar    
   55   28   29 ar    
   56   29   30 ar    
   57   29   66 1     
   58   30   31 ar    
   59   30   67 1     
   60   31   32 ar    
   61   31   68 1     
   62   32   33 ar    
   63   32   69 1     
   64   33   70 1     
   65   34   35 am    
   66   34   71 1     
   67   35   36 2     
   68   35   37 1     
   69   37   43 ar    
   70   37   38 ar    
   71   38   39 ar    
   72   38   72 1     
   73   39   40 ar    
   74   39   73 1     
   75   40   41 ar    
   76   40   74 1     
   77   41   42 1     
   78   41   43 ar    
   79   42   75 1     
   80   43   76 1     
@<TRIPOS>SUBSTRUCTURE
      1 ****           1
@<TRIPOS>SET
DONOR_HYDROGENS      STATIC     ATOMS    <user>   **** ""
3 44 71 75
ATOM$RED        STATIC     ATOMS    COLORGROUP SYSTEM
3 44 71 75
