#       Name:                AAD
#       Creating user name   gbret
#       Creation time:       Fri Sep  9 03:31:36 2016


#       File generated by GOLD software.
#

@<TRIPOS>MOLECULE
AAD
    45    47     1
SMALL
NO_CHARGES


@<TRIPOS>ATOM
      1 C1           1.5330   1.7709   1.8633 C.3            1 <1>                0.0000
      2 S2           1.7705  -0.0275   1.8753 S.3            1 <1>                0.0000
      3 C3           2.4569  -0.3374   3.5256 C.3            1 <1>                0.0000
      4 C4           3.9063   0.1501   3.5750 C.3            1 <1>                0.0000
      5 O5           4.4469  -0.0940   4.8750 O.3            1 <1>                0.0000
      6 N6           5.8362   0.3368   5.0323 N.3            1 <1>                0.0000
      7 C7           0.0766  -0.6619   2.0121 C.3            1 <1>                0.0000
      8 C8          -0.6488  -0.4709   0.6786 C.3            1 <1>                0.0000
      9 O9          -0.1015  -1.3560  -0.3228 O.3            1 <1>                0.0000
     10 C10         -1.1255  -1.4644  -1.3355 C.3            1 <1>                0.0000
     11 C11         -2.4512  -1.5575  -0.5478 C.3            1 <1>                0.0000
     12 O12         -2.8249  -2.9234  -0.3564 O.3            1 <1>                0.0000
     13 C13         -2.1303  -0.8889   0.8076 C.3            1 <1>                0.0000
     14 O14         -2.2961  -1.8214   1.8776 O.3            1 <1>                0.0000
     15 N15         -1.1236  -0.2758  -2.1919 N.pl3          1 <1>                0.0000
     16 C16         -0.5612   0.9303  -1.8966 C.2            1 <1>                0.0000
     17 N17         -0.7462   1.7602  -2.8818 N.2            1 <1>                0.0000
     18 C18         -1.4370   1.1411  -3.8691 C.ar           1 <1>                0.0000
     19 C19         -1.9123   1.5266  -5.1344 C.ar           1 <1>                0.0000
     20 N20         -1.6956   2.8071  -5.6122 N.pl3          1 <1>                0.0000
     21 N21         -2.5743   0.6326  -5.8613 N.ar           1 <1>                0.0000
     22 C22         -2.7854  -0.5918  -5.4136 C.ar           1 <1>                0.0000
     23 N23         -2.3591  -0.9968  -4.2360 N.ar           1 <1>                0.0000
     24 C24         -1.6822  -0.1743  -3.4409 C.ar           1 <1>                0.0000
     25 H25          2.4921   2.2651   2.0178 H              1 <1>                0.0000
     26 H26          1.1174   2.0761   0.9030 H              1 <1>                0.0000
     27 H27          0.8466   2.0520   2.6621 H              1 <1>                0.0000
     28 H28          1.8679   0.1978   4.2704 H              1 <1>                0.0000
     29 H29          2.4257  -1.4062   3.7372 H              1 <1>                0.0000
     30 H30          4.4952  -0.3851   2.8302 H              1 <1>                0.0000
     31 H31          3.9375   1.2190   3.3634 H              1 <1>                0.0000
     32 H32          6.1715   0.1436   5.9641 H              1 <1>                0.0000
     33 H33          6.4290  -0.0935   4.3383 H              1 <1>                0.0000
     34 H34          0.1050  -1.7226   2.2616 H              1 <1>                0.0000
     35 H35         -0.4528  -0.1186   2.7948 H              1 <1>                0.0000
     36 H36         -0.5742   0.5664   0.3521 H              1 <1>                0.0000
     37 H37         -0.9750  -2.3637  -1.9327 H              1 <1>                0.0000
     38 H38         -3.2421  -1.0151  -1.0659 H              1 <1>                0.0000
     39 H39         -3.6508  -3.0403   0.1330 H              1 <1>                0.0000
     40 H40         -2.7620  -0.0139   0.9609 H              1 <1>                0.0000
     41 H41         -3.1965  -2.1630   1.9657 H              1 <1>                0.0000
     42 H42         -0.0397   1.1631  -0.9799 H              1 <1>                0.0000
     43 H43         -1.2106   3.4507  -5.0722 H              1 <1>                0.0000
     44 H44         -2.0285   3.0612  -6.4872 H              1 <1>                0.0000
     45 H45         -3.3284  -1.2868  -6.0369 H              1 <1>                0.0000
@<TRIPOS>BOND
    1    1    2 1     
    2    1   25 1     
    3    1   26 1     
    4    1   27 1     
    5    2    3 1     
    6    2    7 1     
    7    3    4 1     
    8    3   28 1     
    9    3   29 1     
   10    4    5 1     
   11    4   30 1     
   12    4   31 1     
   13    5    6 1     
   14    6   32 1     
   15    6   33 1     
   16    7    8 1     
   17    7   34 1     
   18    7   35 1     
   19    8   13 1     
   20    8    9 1     
   21    8   36 1     
   22    9   10 1     
   23   10   11 1     
   24   10   15 1     
   25   10   37 1     
   26   11   12 1     
   27   11   13 1     
   28   11   38 1     
   29   12   39 1     
   30   13   14 1     
   31   13   40 1     
   32   14   41 1     
   33   15   24 1     
   34   15   16 1     
   35   16   17 2     
   36   16   42 1     
   37   17   18 1     
   38   18   24 ar    
   39   18   19 ar    
   40   19   20 1     
   41   19   21 ar    
   42   20   43 1     
   43   20   44 1     
   44   21   22 ar    
   45   22   23 ar    
   46   22   45 1     
   47   23   24 ar    
@<TRIPOS>SUBSTRUCTURE
      1 ****           1
@<TRIPOS>SET
DONOR_HYDROGENS      STATIC     ATOMS    <user>   **** ""
6 32 33 39 41 43 44
ATOM$RED        STATIC     ATOMS    COLORGROUP SYSTEM
6 32 33 39 41 43 44
