#       Name:                AAO
#       Creating user name   gbret
#       Creation time:       Fri Sep  9 03:32:12 2016


#       File generated by GOLD software.
#

@<TRIPOS>MOLECULE
AAO
   130   135     1
SMALL
NO_CHARGES


@<TRIPOS>ATOM
      1 C1          -4.3185   1.3923  -1.4252 C.3            1 <1>                0.0000
      2 C2          -4.1953  -0.1021  -1.1207 C.3            1 <1>                0.0000
      3 O3          -3.6322  -0.7736  -2.2495 O.3            1 <1>                0.0000
      4 C4          -3.4966  -2.1861  -2.0802 C.3            1 <1>                0.0000
      5 O5          -2.9518  -2.7586  -3.2708 O.3            1 <1>                0.0000
      6 C6          -3.8043  -2.6471  -4.4122 C.3            1 <1>                0.0000
      7 C7          -2.9522  -2.5735  -5.6819 C.3            1 <1>                0.0000
      8 C8          -1.9940  -1.3846  -5.5851 C.3            1 <1>                0.0000
      9 O9          -1.2813  -1.2458  -6.8159 O.3            1 <1>                0.0000
     10 O10         -2.2008  -3.7811  -5.8205 O.3            1 <1>                0.0000
     11 C11         -3.0036  -4.9567  -5.9457 C.3            1 <1>                0.0000
     12 O12         -2.1572  -6.0971  -6.1044 O.3            1 <1>                0.0000
     13 C13         -1.3955  -6.0918  -7.3134 C.3            1 <1>                0.0000
     14 C14         -0.0791  -6.8413  -7.0920 C.3            1 <1>                0.0000
     15 C15          0.6937  -6.1873  -5.9449 C.3            1 <1>                0.0000
     16 O16          1.9721  -6.8124  -5.8144 O.3            1 <1>                0.0000
     17 O17         -0.3578  -8.2038  -6.7631 O.3            1 <1>                0.0000
     18 C18         -1.0580  -8.9188  -7.7832 C.3            1 <1>                0.0000
     19 O19         -1.2606 -10.2700  -7.3646 O.3            1 <1>                0.0000
     20 C20         -2.4137  -8.2528  -8.0324 C.3            1 <1>                0.0000
     21 O21         -3.2024  -8.3152  -6.8423 O.3            1 <1>                0.0000
     22 C22         -2.1904  -6.7883  -8.4222 C.3            1 <1>                0.0000
     23 O23         -3.4530  -6.1392  -8.5853 O.3            1 <1>                0.0000
     24 C24         -3.8578  -5.1261  -4.6865 C.3            1 <1>                0.0000
     25 O25         -3.0067  -5.3032  -3.5524 O.3            1 <1>                0.0000
     26 C26         -4.7181  -3.8740  -4.4903 C.3            1 <1>                0.0000
     27 O27         -5.4645  -3.9921  -3.2775 O.3            1 <1>                0.0000
     28 C28         -2.5606  -2.4699  -0.9025 C.3            1 <1>                0.0000
     29 O29         -1.2631  -1.9424  -1.1859 O.3            1 <1>                0.0000
     30 C30         -3.1206  -1.8022   0.3572 C.3            1 <1>                0.0000
     31 O31         -2.2159  -2.0000   1.4455 O.3            1 <1>                0.0000
     32 C32         -3.2873  -0.3022   0.0955 C.3            1 <1>                0.0000
     33 N33         -1.9733   0.2991  -0.1687 N.4            1 <1>                0.0000
     34 H34         -1.2716  -0.1698   0.3843 H              1 <1>                0.0000
     35 H35         -1.7499   0.2024  -1.1479 H              1 <1>                0.0000
     36 C36         -2.0062   1.7238   0.1877 C.3            1 <1>                0.0000
     37 C37         -2.1950   1.8616   1.6700 C.2            1 <1>                0.0000
     38 C38         -1.5495   2.7067   2.4080 C.2            1 <1>                0.0000
     39 C39         -1.8562   2.7352   3.8832 C.3            1 <1>                0.0000
     40 O40         -2.9408   1.8473   4.1614 O.3            1 <1>                0.0000
     41 C41         -0.5144   3.6597   1.8859 C.3            1 <1>                0.0000
     42 O42          0.7877   3.1711   2.2144 O.3            1 <1>                0.0000
     43 C43          1.7210   4.1947   2.5658 C.3            1 <1>                0.0000
     44 O44          1.3731   4.7397   3.8402 O.3            1 <1>                0.0000
     45 C45          2.2319   5.7949   4.2775 C.3            1 <1>                0.0000
     46 C46          1.7493   6.3171   5.6323 C.3            1 <1>                0.0000
     47 O47          0.4611   6.9167   5.4802 O.3            1 <1>                0.0000
     48 C48          3.6612   5.2639   4.4148 C.3            1 <1>                0.0000
     49 O49          3.6962   4.2384   5.4093 O.3            1 <1>                0.0000
     50 C50          4.9431   4.1414   6.1005 C.3            1 <1>                0.0000
     51 O51          5.1094   5.2815   6.9458 O.3            1 <1>                0.0000
     52 C52          6.3426   5.2977   7.6678 C.3            1 <1>                0.0000
     53 C53          6.4226   6.5709   8.5125 C.3            1 <1>                0.0000
     54 O54          6.4733   7.7109   7.6523 O.3            1 <1>                0.0000
     55 C55          6.4125   4.0725   8.5831 C.3            1 <1>                0.0000
     56 O56          5.3517   4.1294   9.5389 O.3            1 <1>                0.0000
     57 C57          6.2713   2.8038   7.7365 C.3            1 <1>                0.0000
     58 O58          6.2618   1.6580   8.5904 O.3            1 <1>                0.0000
     59 C59          4.9568   2.8697   6.9529 C.3            1 <1>                0.0000
     60 O60          3.8575   2.8947   7.8655 O.3            1 <1>                0.0000
     61 C61          4.1151   4.6883   3.0698 C.3            1 <1>                0.0000
     62 O62          5.4208   4.1242   3.2074 O.3            1 <1>                0.0000
     63 C63          3.1298   3.5994   2.6342 C.3            1 <1>                0.0000
     64 O64          3.1507   2.5298   3.5816 O.3            1 <1>                0.0000
     65 C65         -0.6382   3.7918   0.3665 C.3            1 <1>                0.0000
     66 O66          0.4957   4.4924  -0.1488 O.3            1 <1>                0.0000
     67 C67         -0.6936   2.3840  -0.2400 C.3            1 <1>                0.0000
     68 O68          0.4100   1.6117   0.2371 O.3            1 <1>                0.0000
     69 H69         -3.3595   1.7713  -1.7784 H              1 <1>                0.0000
     70 H70         -5.0753   1.5451  -2.1946 H              1 <1>                0.0000
     71 H71         -4.6084   1.9249  -0.5195 H              1 <1>                0.0000
     72 H72         -5.1826  -0.5124  -0.9087 H              1 <1>                0.0000
     73 H73         -4.4747  -2.6239  -1.8810 H              1 <1>                0.0000
     74 H74         -4.4112  -1.7457  -4.3269 H              1 <1>                0.0000
     75 H75         -3.6013  -2.4476  -6.5485 H              1 <1>                0.0000
     76 H76         -2.5621  -0.4751  -5.3897 H              1 <1>                0.0000
     77 H77         -1.2870  -1.5530  -4.7728 H              1 <1>                0.0000
     78 H78         -0.6541  -0.5099  -6.8264 H              1 <1>                0.0000
     79 H79         -3.6533  -4.8622  -6.8158 H              1 <1>                0.0000
     80 H80         -1.1853  -5.0634  -7.6070 H              1 <1>                0.0000
     81 H81          0.5191  -6.8020  -8.0023 H              1 <1>                0.0000
     82 H82          0.8279  -5.1263  -6.1556 H              1 <1>                0.0000
     83 H83          0.1350  -6.3055  -5.0165 H              1 <1>                0.0000
     84 H84          2.5178  -6.4473  -5.1045 H              1 <1>                0.0000
     85 H85         -0.4725  -8.9070  -8.7026 H              1 <1>                0.0000
     86 H86         -0.4423 -10.7539  -7.1876 H              1 <1>                0.0000
     87 H87         -2.9311  -8.7708  -8.8399 H              1 <1>                0.0000
     88 H88         -3.3792  -9.2147  -6.5344 H              1 <1>                0.0000
     89 H89         -1.6312  -6.7410  -9.3566 H              1 <1>                0.0000
     90 H90         -4.0126  -6.5335  -9.2683 H              1 <1>                0.0000
     91 H91         -4.5021  -5.9981  -4.7981 H              1 <1>                0.0000
     92 H92         -2.4291  -6.0765  -3.6110 H              1 <1>                0.0000
     93 H93         -5.4022  -3.7661  -5.3320 H              1 <1>                0.0000
     94 H94         -6.0604  -4.7533  -3.2550 H              1 <1>                0.0000
     95 H95         -2.4897  -3.5461  -0.7447 H              1 <1>                0.0000
     96 H96         -0.8496  -2.3179  -1.9754 H              1 <1>                0.0000
     97 H97         -4.0879  -2.2405   0.6028 H              1 <1>                0.0000
     98 H98         -2.0581  -2.9291   1.6619 H              1 <1>                0.0000
     99 H99         -3.7371   0.1719   0.9678 H              1 <1>                0.0000
    100 H100        -2.8375   2.2058  -0.3268 H              1 <1>                0.0000
    101 H101        -2.9146   1.2156   2.1511 H              1 <1>                0.0000
    102 H102        -0.9758   2.4202   4.4434 H              1 <1>                0.0000
    103 H103        -2.1311   3.7480   4.1776 H              1 <1>                0.0000
    104 H104        -3.1929   1.8147   5.0944 H              1 <1>                0.0000
    105 H105        -0.6597   4.6377   2.3447 H              1 <1>                0.0000
    106 H106         1.6957   4.9833   1.8138 H              1 <1>                0.0000
    107 H107         2.2132   6.6047   3.5482 H              1 <1>                0.0000
    108 H108         1.6837   5.4893   6.3383 H              1 <1>                0.0000
    109 H109         2.4536   7.0596   6.0073 H              1 <1>                0.0000
    110 H110         0.0925   7.2705   6.3012 H              1 <1>                0.0000
    111 H111         4.3254   6.0773   4.7068 H              1 <1>                0.0000
    112 H112         5.7577   4.1030   5.3772 H              1 <1>                0.0000
    113 H113         7.1755   5.2748   6.9651 H              1 <1>                0.0000
    114 H114         5.5431   6.6379   9.1529 H              1 <1>                0.0000
    115 H115         7.3203   6.5415   9.1299 H              1 <1>                0.0000
    116 H116         6.5251   8.5552   8.1208 H              1 <1>                0.0000
    117 H117         7.3706   4.0602   9.1026 H              1 <1>                0.0000
    118 H118         5.3350   3.3824  10.1528 H              1 <1>                0.0000
    119 H119         7.1084   2.7339   7.0419 H              1 <1>                0.0000
    120 H120         6.1749   0.8176   8.1200 H              1 <1>                0.0000
    121 H121         4.8744   1.9965   6.3057 H              1 <1>                0.0000
    122 H122         2.9916   2.9364   7.4371 H              1 <1>                0.0000
    123 H123         4.1375   5.4816   2.3226 H              1 <1>                0.0000
    124 H124         5.7714   3.7405   2.3920 H              1 <1>                0.0000
    125 H125         3.4141   3.2227   1.6518 H              1 <1>                0.0000
    126 H126         2.5489   1.8035   3.3682 H              1 <1>                0.0000
    127 H127        -1.5491   4.3369   0.1191 H              1 <1>                0.0000
    128 H128         0.4817   4.6116  -1.1083 H              1 <1>                0.0000
    129 H129        -0.6546   2.4517  -1.3272 H              1 <1>                0.0000
    130 H130         1.2749   1.9826   0.0149 H              1 <1>                0.0000
@<TRIPOS>BOND
    1    1    2 1     
    2    1   69 1     
    3    1   70 1     
    4    1   71 1     
    5    2   32 1     
    6    2    3 1     
    7    2   72 1     
    8    3    4 1     
    9    4    5 1     
   10    4   28 1     
   11    4   73 1     
   12    5    6 1     
   13    6   26 1     
   14    6    7 1     
   15    6   74 1     
   16    7    8 1     
   17    7   10 1     
   18    7   75 1     
   19    8    9 1     
   20    8   76 1     
   21    8   77 1     
   22    9   78 1     
   23   10   11 1     
   24   11   12 1     
   25   11   24 1     
   26   11   79 1     
   27   12   13 1     
   28   13   22 1     
   29   13   14 1     
   30   13   80 1     
   31   14   15 1     
   32   14   17 1     
   33   14   81 1     
   34   15   16 1     
   35   15   82 1     
   36   15   83 1     
   37   16   84 1     
   38   17   18 1     
   39   18   19 1     
   40   18   20 1     
   41   18   85 1     
   42   19   86 1     
   43   20   21 1     
   44   20   22 1     
   45   20   87 1     
   46   21   88 1     
   47   22   23 1     
   48   22   89 1     
   49   23   90 1     
   50   24   25 1     
   51   24   26 1     
   52   24   91 1     
   53   25   92 1     
   54   26   27 1     
   55   26   93 1     
   56   27   94 1     
   57   28   29 1     
   58   28   30 1     
   59   28   95 1     
   60   29   96 1     
   61   30   31 1     
   62   30   32 1     
   63   30   97 1     
   64   31   98 1     
   65   32   33 1     
   66   32   99 1     
   67   33   34 1     
   68   33   35 1     
   69   33   36 1     
   70   36   67 1     
   71   36   37 1     
   72   36  100 1     
   73   37   38 2     
   74   37  101 1     
   75   38   39 1     
   76   38   41 1     
   77   39   40 1     
   78   39  102 1     
   79   39  103 1     
   80   40  104 1     
   81   41   42 1     
   82   41   65 1     
   83   41  105 1     
   84   42   43 1     
   85   43   63 1     
   86   43   44 1     
   87   43  106 1     
   88   44   45 1     
   89   45   46 1     
   90   45   48 1     
   91   45  107 1     
   92   46   47 1     
   93   46  108 1     
   94   46  109 1     
   95   47  110 1     
   96   48   49 1     
   97   48   61 1     
   98   48  111 1     
   99   49   50 1     
  100   50   59 1     
  101   50   51 1     
  102   50  112 1     
  103   51   52 1     
  104   52   53 1     
  105   52   55 1     
  106   52  113 1     
  107   53   54 1     
  108   53  114 1     
  109   53  115 1     
  110   54  116 1     
  111   55   56 1     
  112   55   57 1     
  113   55  117 1     
  114   56  118 1     
  115   57   58 1     
  116   57   59 1     
  117   57  119 1     
  118   58  120 1     
  119   59   60 1     
  120   59  121 1     
  121   60  122 1     
  122   61   62 1     
  123   61   63 1     
  124   61  123 1     
  125   62  124 1     
  126   63   64 1     
  127   63  125 1     
  128   64  126 1     
  129   65   66 1     
  130   65   67 1     
  131   65  127 1     
  132   66  128 1     
  133   67   68 1     
  134   67  129 1     
  135   68  130 1     
@<TRIPOS>SUBSTRUCTURE
      1 ****           1
@<TRIPOS>SET
DONOR_HYDROGENS      STATIC     ATOMS    <user>   **** ""
21 78 84 86 88 90 92 94 96 98 34 35 104 110 116 118 120 122 124 \
 126 128 130
ATOM$RED        STATIC     ATOMS    COLORGROUP SYSTEM
21 78 84 86 88 90 92 94 96 98 34 35 104 110 116 118 120 122 124 \
 126 128 130
