#       Name:                AAP
#       Creating user name   gbret
#       Creation time:       Fri Sep  9 03:32:20 2016


#       File generated by GOLD software.
#

@<TRIPOS>MOLECULE
AAP
    39    40     1
SMALL
NO_CHARGES


@<TRIPOS>ATOM
      1 C1           0.5262   4.5221   0.2775 C.3            1 <1>                0.0000
      2 C2           0.4851   3.0158   0.2991 C.2            1 <1>                0.0000
      3 O3           1.4959   2.3846   0.5262 O.2            1 <1>                0.0000
      4 C4          -0.7768   2.3130   0.0456 C.ar           1 <1>                0.0000
      5 C5          -1.9679   3.0343  -0.1057 C.ar           1 <1>                0.0000
      6 C6          -3.1481   2.3676  -0.3439 C.ar           1 <1>                0.0000
      7 C7          -3.1662   0.9838  -0.4353 C.ar           1 <1>                0.0000
      8 C8          -4.4666   0.2685  -0.6970 C.3            1 <1>                0.0000
      9 C9          -2.0028   0.2573  -0.2890 C.ar           1 <1>                0.0000
     10 C10         -0.7989   0.9101  -0.0532 C.ar           1 <1>                0.0000
     11 N11          0.3723   0.1819   0.0939 N.pl3          1 <1>                0.0000
     12 C12          0.3613  -1.2702  -0.0998 C.3            1 <1>                0.0000
     13 C13          0.3332  -1.5802  -1.5743 C.2            1 <1>                0.0000
     14 N14          0.3190  -2.8610  -1.9935 N.am           1 <1>                0.0000
     15 O15          0.3235  -0.6770  -2.3837 O.2            1 <1>                0.0000
     16 C16          1.5998  -1.8685   0.5159 C.ar           1 <1>                0.0000
     17 C17          2.8409  -1.3211   0.2448 C.ar           1 <1>                0.0000
     18 Cl18         2.9720   0.0559  -0.8042 Cl             1 <1>                0.0000
     19 C19          3.9777  -1.8709   0.8103 C.ar           1 <1>                0.0000
     20 C20          3.8734  -2.9669   1.6459 C.ar           1 <1>                0.0000
     21 C21          2.6336  -3.5147   1.9167 C.ar           1 <1>                0.0000
     22 C22          1.4955  -2.9620   1.3567 C.ar           1 <1>                0.0000
     23 Cl23        -0.0616  -3.6497   1.6975 Cl             1 <1>                0.0000
     24 H24          1.5411   4.8609   0.4859 H              1 <1>                0.0000
     25 H25          0.2183   4.8799  -0.7050 H              1 <1>                0.0000
     26 H26         -0.1509   4.9150   1.0359 H              1 <1>                0.0000
     27 H27         -1.9602   4.1120  -0.0352 H              1 <1>                0.0000
     28 H28         -4.0656   2.9253  -0.4599 H              1 <1>                0.0000
     29 H29         -4.6121   0.1607  -1.7719 H              1 <1>                0.0000
     30 H30         -4.4386  -0.7176  -0.2335 H              1 <1>                0.0000
     31 H31         -5.2897   0.8451  -0.2750 H              1 <1>                0.0000
     32 H32         -2.0270  -0.8200  -0.3614 H              1 <1>                0.0000
     33 H33          1.1988   0.6341   0.3249 H              1 <1>                0.0000
     34 H34         -0.5226  -1.6937   0.3774 H              1 <1>                0.0000
     35 H35          0.3009  -3.0605  -2.9426 H              1 <1>                0.0000
     36 H36          0.3269  -3.5833  -1.3461 H              1 <1>                0.0000
     37 H37          4.9468  -1.4437   0.5984 H              1 <1>                0.0000
     38 H38          4.7610  -3.3958   2.0870 H              1 <1>                0.0000
     39 H39          2.5528  -4.3713   2.5695 H              1 <1>                0.0000
@<TRIPOS>BOND
    1    1    2 1     
    2    1   24 1     
    3    1   25 1     
    4    1   26 1     
    5    2    3 2     
    6    2    4 1     
    7    4   10 ar    
    8    4    5 ar    
    9    5    6 ar    
   10    5   27 1     
   11    6    7 ar    
   12    6   28 1     
   13    7    8 1     
   14    7    9 ar    
   15    8   29 1     
   16    8   30 1     
   17    8   31 1     
   18    9   10 ar    
   19    9   32 1     
   20   10   11 1     
   21   11   12 1     
   22   11   33 1     
   23   12   13 1     
   24   12   16 1     
   25   12   34 1     
   26   13   14 am    
   27   13   15 2     
   28   14   35 1     
   29   14   36 1     
   30   16   22 ar    
   31   16   17 ar    
   32   17   18 1     
   33   17   19 ar    
   34   19   20 ar    
   35   19   37 1     
   36   20   21 ar    
   37   20   38 1     
   38   21   22 ar    
   39   21   39 1     
   40   22   23 1     
@<TRIPOS>SUBSTRUCTURE
      1 ****           1
@<TRIPOS>SET
DONOR_HYDROGENS      STATIC     ATOMS    <user>   **** ""
3 33 35 36
ATOM$RED        STATIC     ATOMS    COLORGROUP SYSTEM
3 33 35 36
