#       Name:                ABE
#       Creating user name   gbret
#       Creation time:       Fri Sep  9 03:34:07 2016


#       File generated by GOLD software.
#

@<TRIPOS>MOLECULE
ABE
    22    22     1
SMALL
NO_CHARGES


@<TRIPOS>ATOM
      1 C1          -0.8880   2.4372  -0.0026 C.3            1 <1>                0.0000
      2 C2          -0.8672   0.9073  -0.0110 C.3            1 <1>                0.0000
      3 O3          -0.1972   0.4463  -1.1860 O.3            1 <1>                0.0000
      4 C4          -0.1438  -0.9766  -1.3068 C.3            1 <1>                0.0000
      5 O5           0.5201  -1.3271  -2.5227 O.3            1 <1>                0.0000
      6 C6           0.6257  -1.5597  -0.1186 C.3            1 <1>                0.0000
      7 O7           1.9696  -1.0742  -0.1354 O.3            1 <1>                0.0000
      8 C8          -0.0578  -1.1296   1.1830 C.3            1 <1>                0.0000
      9 C9          -0.1268   0.4000   1.2292 C.3            1 <1>                0.0000
     10 O10          1.1971   0.9374   1.2482 O.3            1 <1>                0.0000
     11 H11          0.1346   2.8145  -0.0103 H              1 <1>                0.0000
     12 H12         -1.4152   2.7982  -0.8856 H              1 <1>                0.0000
     13 H13         -1.3982   2.7887   0.8942 H              1 <1>                0.0000
     14 H14         -1.8898   0.5299  -0.0037 H              1 <1>                0.0000
     15 H15         -1.1568  -1.3789  -1.3167 H              1 <1>                0.0000
     16 H16          0.0871  -0.9893  -3.3187 H              1 <1>                0.0000
     17 H17          0.6305  -2.6476  -0.1863 H              1 <1>                0.0000
     18 H18          2.4616  -1.3061  -0.9349 H              1 <1>                0.0000
     19 H19         -1.0664  -1.5413   1.2185 H              1 <1>                0.0000
     20 H20          0.5167  -1.4946   2.0343 H              1 <1>                0.0000
     21 H21         -0.6611   0.7135   2.1261 H              1 <1>                0.0000
     22 H22          1.7262   0.6530   2.0060 H              1 <1>                0.0000
@<TRIPOS>BOND
    1    1    2 1     
    2    1   11 1     
    3    1   12 1     
    4    1   13 1     
    5    2    9 1     
    6    2    3 1     
    7    2   14 1     
    8    3    4 1     
    9    4    5 1     
   10    4    6 1     
   11    4   15 1     
   12    5   16 1     
   13    6    7 1     
   14    6    8 1     
   15    6   17 1     
   16    7   18 1     
   17    8    9 1     
   18    8   19 1     
   19    8   20 1     
   20    9   10 1     
   21    9   21 1     
   22   10   22 1     
@<TRIPOS>SUBSTRUCTURE
      1 ****           1
@<TRIPOS>SET
DONOR_HYDROGENS      STATIC     ATOMS    <user>   **** ""
3 16 18 22
ATOM$RED        STATIC     ATOMS    COLORGROUP SYSTEM
3 16 18 22
