#       Name:                AD7
#       Creating user name   gbret
#       Creation time:       Fri Sep  9 03:38:18 2016


#       File generated by GOLD software.
#

@<TRIPOS>MOLECULE
AD7
    69    70     1
SMALL
NO_CHARGES


@<TRIPOS>ATOM
      1 C1          -5.4498   7.2738  -2.7723 C.3            1 <1>                0.0000
      2 C2          -5.1257   5.8304  -3.1627 C.3            1 <1>                0.0000
      3 C3          -4.1892   5.2178  -2.1193 C.3            1 <1>                0.0000
      4 C4          -3.8651   3.7745  -2.5098 C.3            1 <1>                0.0000
      5 C5          -2.9287   3.1619  -1.4663 C.3            1 <1>                0.0000
      6 C6          -2.6045   1.7185  -1.8568 C.3            1 <1>                0.0000
      7 C7          -1.6681   1.1059  -0.8133 C.3            1 <1>                0.0000
      8 C8          -1.3440  -0.3375  -1.2038 C.3            1 <1>                0.0000
      9 O9          -0.3832  -0.8734  -0.2918 O.3            1 <1>                0.0000
     10 C10          0.0695  -2.1861  -0.6293 C.3            1 <1>                0.0000
     11 O11          0.8901  -2.1215  -1.7974 O.3            1 <1>                0.0000
     12 C12          1.3775  -3.3902  -2.2389 C.3            1 <1>                0.0000
     13 C13          2.2155  -3.2023  -3.5052 C.3            1 <1>                0.0000
     14 O14          1.3799  -2.7294  -4.5635 O.3            1 <1>                0.0000
     15 C15          2.2441  -4.0126  -1.1410 C.3            1 <1>                0.0000
     16 O16          3.3767  -3.1766  -0.8951 O.3            1 <1>                0.0000
     17 C17          1.4154  -4.1418   0.1408 C.3            1 <1>                0.0000
     18 N18          2.2603  -4.6682   1.2212 N.4            1 <1>                0.0000
     19 H19          3.0645  -4.0707   1.3407 H              1 <1>                0.0000
     20 H20          1.7307  -4.6951   2.0796 H              1 <1>                0.0000
     21 H21          2.5660  -5.6004   0.9852 H              1 <1>                0.0000
     22 C22          0.8835  -2.7601   0.5333 C.3            1 <1>                0.0000
     23 O23          1.9800  -1.8909   0.8235 O.3            1 <1>                0.0000
     24 C24          2.2405  -1.7299   2.2193 C.3            1 <1>                0.0000
     25 C25          3.5720  -0.9987   2.4092 C.3            1 <1>                0.0000
     26 C26          3.8149  -0.7766   3.9052 C.3            1 <1>                0.0000
     27 O27          5.0195  -0.0301   4.0883 O.3            1 <1>                0.0000
     28 C28          2.6345   0.0031   4.4926 C.3            1 <1>                0.0000
     29 O29          2.5609   1.2917   3.8795 O.3            1 <1>                0.0000
     30 C30          1.3392  -0.7669   4.2223 C.3            1 <1>                0.0000
     31 C31          0.1490   0.0346   4.7533 C.3            1 <1>                0.0000
     32 O32          1.1899  -0.9661   2.8151 O.3            1 <1>                0.0000
     33 H33         -4.5279   7.8536  -2.7264 H              1 <1>                0.0000
     34 H34         -6.1169   7.7102  -3.5156 H              1 <1>                0.0000
     35 H35         -5.9355   7.2859  -1.7965 H              1 <1>                0.0000
     36 H36         -6.0475   5.2507  -3.2085 H              1 <1>                0.0000
     37 H37         -4.6400   5.8183  -4.1385 H              1 <1>                0.0000
     38 H38         -3.2674   5.7976  -2.0735 H              1 <1>                0.0000
     39 H39         -4.6749   5.2299  -1.1436 H              1 <1>                0.0000
     40 H40         -4.7870   3.1947  -2.5556 H              1 <1>                0.0000
     41 H41         -3.3794   3.7623  -3.4855 H              1 <1>                0.0000
     42 H42         -2.0068   3.7416  -1.4205 H              1 <1>                0.0000
     43 H43         -3.4144   3.1740  -0.4906 H              1 <1>                0.0000
     44 H44         -3.5264   1.1387  -1.9026 H              1 <1>                0.0000
     45 H45         -2.1188   1.7064  -2.8325 H              1 <1>                0.0000
     46 H46         -0.7463   1.6857  -0.7675 H              1 <1>                0.0000
     47 H47         -2.1538   1.1180   0.1624 H              1 <1>                0.0000
     48 H48         -2.2537  -0.9369  -1.1670 H              1 <1>                0.0000
     49 H49         -0.9362  -0.3577  -2.2145 H              1 <1>                0.0000
     50 H50         -0.7897  -2.8282  -0.8234 H              1 <1>                0.0000
     51 H51          0.5356  -4.0481  -2.4545 H              1 <1>                0.0000
     52 H52          3.0054  -2.4760  -3.3137 H              1 <1>                0.0000
     53 H53          2.6599  -4.1555  -3.7915 H              1 <1>                0.0000
     54 H54          1.8457  -2.5875  -5.3990 H              1 <1>                0.0000
     55 H55          2.5816  -4.9991  -1.4587 H              1 <1>                0.0000
     56 H56          3.9446  -3.0468  -1.6670 H              1 <1>                0.0000
     57 H57          0.5798  -4.8201  -0.0320 H              1 <1>                0.0000
     58 H58          0.2470  -2.8513   1.4135 H              1 <1>                0.0000
     59 H59          2.2925  -2.7094   2.6947 H              1 <1>                0.0000
     60 H60          4.3805  -1.6006   1.9943 H              1 <1>                0.0000
     61 H61          3.5348  -0.0360   1.8994 H              1 <1>                0.0000
     62 H62          3.9032  -1.7401   4.4072 H              1 <1>                0.0000
     63 H63          5.8081  -0.4625   3.7330 H              1 <1>                0.0000
     64 H64          2.7731   0.1186   5.5676 H              1 <1>                0.0000
     65 H65          1.8345   1.8411   4.2046 H              1 <1>                0.0000
     66 H66          1.3795  -1.7336   4.7243 H              1 <1>                0.0000
     67 H67          0.0451   0.9548   4.1783 H              1 <1>                0.0000
     68 H68         -0.7604  -0.5586   4.6570 H              1 <1>                0.0000
     69 H69          0.3143   0.2785   5.8027 H              1 <1>                0.0000
@<TRIPOS>BOND
    1    1    2 1     
    2    1   33 1     
    3    1   34 1     
    4    1   35 1     
    5    2    3 1     
    6    2   36 1     
    7    2   37 1     
    8    3    4 1     
    9    3   38 1     
   10    3   39 1     
   11    4    5 1     
   12    4   40 1     
   13    4   41 1     
   14    5    6 1     
   15    5   42 1     
   16    5   43 1     
   17    6    7 1     
   18    6   44 1     
   19    6   45 1     
   20    7    8 1     
   21    7   46 1     
   22    7   47 1     
   23    8    9 1     
   24    8   48 1     
   25    8   49 1     
   26    9   10 1     
   27   10   22 1     
   28   10   11 1     
   29   10   50 1     
   30   11   12 1     
   31   12   13 1     
   32   12   15 1     
   33   12   51 1     
   34   13   14 1     
   35   13   52 1     
   36   13   53 1     
   37   14   54 1     
   38   15   16 1     
   39   15   17 1     
   40   15   55 1     
   41   16   56 1     
   42   17   18 1     
   43   17   22 1     
   44   17   57 1     
   45   18   19 1     
   46   18   20 1     
   47   18   21 1     
   48   22   23 1     
   49   22   58 1     
   50   23   24 1     
   51   24   32 1     
   52   24   25 1     
   53   24   59 1     
   54   25   26 1     
   55   25   60 1     
   56   25   61 1     
   57   26   27 1     
   58   26   28 1     
   59   26   62 1     
   60   27   63 1     
   61   28   29 1     
   62   28   30 1     
   63   28   64 1     
   64   29   65 1     
   65   30   31 1     
   66   30   32 1     
   67   30   66 1     
   68   31   67 1     
   69   31   68 1     
   70   31   69 1     
@<TRIPOS>SUBSTRUCTURE
      1 ****           1
@<TRIPOS>SET
DONOR_HYDROGENS      STATIC     ATOMS    <user>   **** ""
7 54 56 19 20 21 63 65
ATOM$RED        STATIC     ATOMS    COLORGROUP SYSTEM
7 54 56 19 20 21 63 65
