#       Name:                AEE
#       Creating user name   gbret
#       Creation time:       Fri Sep  9 03:40:44 2016


#       File generated by GOLD software.
#

@<TRIPOS>MOLECULE
AEE
    66    70     1
SMALL
NO_CHARGES


@<TRIPOS>ATOM
      1 C1          -3.6823   7.8545  -2.6984 C.3            1 <1>                0.0000
      2 C2          -3.6615   6.3246  -2.7068 C.3            1 <1>                0.0000
      3 N3          -2.9510   5.8380  -1.5167 N.3            1 <1>                0.0000
      4 C4          -3.6918   6.1656  -0.2903 C.3            1 <1>                0.0000
      5 C5          -2.8915   5.6958   0.9264 C.3            1 <1>                0.0000
      6 N6          -2.6727   4.2460   0.8386 N.4            1 <1>                0.0000
      7 H7          -3.5634   3.7729   0.8067 H              1 <1>                0.0000
      8 C8          -1.9197   3.7925   2.0156 C.3            1 <1>                0.0000
      9 C9          -1.5887   2.3298   1.8673 C.ar           1 <1>                0.0000
     10 C10         -2.4685   1.3730   2.3413 C.ar           1 <1>                0.0000
     11 C11         -2.1714   0.0323   2.2086 C.ar           1 <1>                0.0000
     12 C12         -0.9805  -0.3579   1.5943 C.ar           1 <1>                0.0000
     13 C13         -0.0976   0.6123   1.1179 C.ar           1 <1>                0.0000
     14 C14         -0.4089   1.9496   1.2526 C.ar           1 <1>                0.0000
     15 C15         -0.6555  -1.7930   1.4491 C.2            1 <1>                0.0000
     16 C16          0.4709  -2.2875   0.8763 C.2            1 <1>                0.0000
     17 C17          0.3762  -3.7409   0.9488 C.ar           1 <1>                0.0000
     18 C18          1.1937  -4.8100   0.5447 C.ar           1 <1>                0.0000
     19 N19          2.4041  -4.5790  -0.0827 N.pl3          1 <1>                0.0000
     20 C20          3.2419  -5.7074  -0.4964 C.3            1 <1>                0.0000
     21 C21          2.7898  -6.2008  -1.8723 C.3            1 <1>                0.0000
     22 C22          4.6805  -5.2647  -0.5693 C.ar           1 <1>                0.0000
     23 C23          4.9951  -4.0176  -1.0757 C.ar           1 <1>                0.0000
     24 C24          6.3148  -3.6115  -1.1426 C.ar           1 <1>                0.0000
     25 C25          7.3198  -4.4524  -0.7025 C.ar           1 <1>                0.0000
     26 C26          7.0052  -5.6992  -0.1952 C.ar           1 <1>                0.0000
     27 C27          5.6852  -6.1036  -0.1244 C.ar           1 <1>                0.0000
     28 N28          0.7742  -6.0493   0.7812 N.ar           1 <1>                0.0000
     29 C29         -0.3812  -6.2744   1.3806 C.ar           1 <1>                0.0000
     30 N30         -1.1787  -5.3057   1.7756 N.ar           1 <1>                0.0000
     31 C31         -0.8471  -4.0297   1.5843 C.ar           1 <1>                0.0000
     32 N32         -1.4469  -2.8361   1.8800 N.pl3          1 <1>                0.0000
     33 H33         -2.3029  -2.7384   2.3256 H              1 <1>                0.0000
     34 C34         -1.9106   3.9369  -0.3784 C.3            1 <1>                0.0000
     35 C35         -2.7027   4.3921  -1.6060 C.3            1 <1>                0.0000
     36 H36         -2.6597   8.2318  -2.7061 H              1 <1>                0.0000
     37 H37         -4.2095   8.2155  -3.5814 H              1 <1>                0.0000
     38 H38         -4.1925   8.2060  -1.8016 H              1 <1>                0.0000
     39 H39         -4.6841   5.9473  -2.6990 H              1 <1>                0.0000
     40 H40         -3.1513   5.9731  -3.6036 H              1 <1>                0.0000
     41 H41         -3.8415   7.2438  -0.2329 H              1 <1>                0.0000
     42 H42         -4.6595   5.6640  -0.3049 H              1 <1>                0.0000
     43 H43         -1.9295   6.2077   0.9483 H              1 <1>                0.0000
     44 H44         -3.4458   5.9251   1.8365 H              1 <1>                0.0000
     45 H45         -0.9973   4.3670   2.1003 H              1 <1>                0.0000
     46 H46         -2.5229   3.9395   2.9116 H              1 <1>                0.0000
     47 H47         -3.3897   1.6763   2.8165 H              1 <1>                0.0000
     48 H48         -2.8587  -0.7136   2.5797 H              1 <1>                0.0000
     49 H49          0.8255   0.3169   0.6415 H              1 <1>                0.0000
     50 H50          0.2735   2.7014   0.8844 H              1 <1>                0.0000
     51 H51          1.2809  -1.7152   0.4487 H              1 <1>                0.0000
     52 H52          2.6985  -3.6698  -0.2490 H              1 <1>                0.0000
     53 H53          3.1467  -6.5156   0.2287 H              1 <1>                0.0000
     54 H54          3.4131  -7.0403  -2.1801 H              1 <1>                0.0000
     55 H55          1.7492  -6.5210  -1.8196 H              1 <1>                0.0000
     56 H56          2.8849  -5.3926  -2.5974 H              1 <1>                0.0000
     57 H57          4.2099  -3.3606  -1.4195 H              1 <1>                0.0000
     58 H58          6.5606  -2.6374  -1.5389 H              1 <1>                0.0000
     59 H59          8.3509  -4.1354  -0.7554 H              1 <1>                0.0000
     60 H60          7.7904  -6.3563   0.1483 H              1 <1>                0.0000
     61 H61          5.4393  -7.0777   0.2719 H              1 <1>                0.0000
     62 H62         -0.6840  -7.2966   1.5534 H              1 <1>                0.0000
     63 H63         -0.9536   4.4579  -0.3499 H              1 <1>                0.0000
     64 H64         -1.7376   2.8622  -0.4357 H              1 <1>                0.0000
     65 H65         -3.6541   3.8613  -1.6423 H              1 <1>                0.0000
     66 H66         -2.1308   4.1764  -2.5084 H              1 <1>                0.0000
@<TRIPOS>BOND
    1    1    2 1     
    2    1   36 1     
    3    1   37 1     
    4    1   38 1     
    5    2    3 1     
    6    2   39 1     
    7    2   40 1     
    8    3   35 1     
    9    3    4 1     
   10    4    5 1     
   11    4   41 1     
   12    4   42 1     
   13    5    6 1     
   14    5   43 1     
   15    5   44 1     
   16    6    7 1     
   17    6    8 1     
   18    6   34 1     
   19    8    9 1     
   20    8   45 1     
   21    8   46 1     
   22    9   14 ar    
   23    9   10 ar    
   24   10   11 ar    
   25   10   47 1     
   26   11   12 ar    
   27   11   48 1     
   28   12   13 ar    
   29   12   15 1     
   30   13   14 ar    
   31   13   49 1     
   32   14   50 1     
   33   15   32 1     
   34   15   16 2     
   35   16   17 1     
   36   16   51 1     
   37   17   31 ar    
   38   17   18 ar    
   39   18   19 1     
   40   18   28 ar    
   41   19   20 1     
   42   19   52 1     
   43   20   21 1     
   44   20   22 1     
   45   20   53 1     
   46   21   54 1     
   47   21   55 1     
   48   21   56 1     
   49   22   27 ar    
   50   22   23 ar    
   51   23   24 ar    
   52   23   57 1     
   53   24   25 ar    
   54   24   58 1     
   55   25   26 ar    
   56   25   59 1     
   57   26   27 ar    
   58   26   60 1     
   59   27   61 1     
   60   28   29 ar    
   61   29   30 ar    
   62   29   62 1     
   63   30   31 ar    
   64   31   32 1     
   65   32   33 1     
   66   34   35 1     
   67   34   63 1     
   68   34   64 1     
   69   35   65 1     
   70   35   66 1     
@<TRIPOS>SUBSTRUCTURE
      1 ****           1
@<TRIPOS>SET
DONOR_HYDROGENS      STATIC     ATOMS    <user>   **** ""
3 7 52 33
ATOM$RED        STATIC     ATOMS    COLORGROUP SYSTEM
3 7 52 33
