#       Name:                AFF
#       Creating user name   gbret
#       Creation time:       Fri Sep  9 03:42:23 2016


#       File generated by GOLD software.
#

@<TRIPOS>MOLECULE
AFF
    30    32     1
SMALL
NO_CHARGES


@<TRIPOS>ATOM
      1 C1          -0.3226   5.5038  -0.4700 C.3            1 <1>                0.0000
      2 C2          -0.3096   3.9969  -0.4741 C.2            1 <1>                0.0000
      3 O3          -0.8426   3.3883  -1.3777 O.2            1 <1>                0.0000
      4 N4           0.2942   3.3255   0.5265 N.am           1 <1>                0.0000
      5 C5           0.2234   1.9298   0.5744 C.ar           1 <1>                0.0000
      6 C6           0.1424   1.2791   1.8000 C.ar           1 <1>                0.0000
      7 C7           0.0725  -0.0958   1.8510 C.ar           1 <1>                0.0000
      8 C8           0.0829  -0.8414   0.6696 C.ar           1 <1>                0.0000
      9 C9           0.1642  -0.1830  -0.5551 C.ar           1 <1>                0.0000
     10 C10          0.1556  -1.2343  -1.6379 C.3            1 <1>                0.0000
     11 C11          0.0618  -2.5628  -0.9284 C.ar           1 <1>                0.0000
     12 C12          0.0170  -3.8595  -1.3940 C.ar           1 <1>                0.0000
     13 C13         -0.0706  -4.9135  -0.5013 C.ar           1 <1>                0.0000
     14 C14         -0.1129  -4.6684   0.8592 C.ar           1 <1>                0.0000
     15 C15         -0.0685  -3.3739   1.3341 C.ar           1 <1>                0.0000
     16 C16          0.0199  -2.3058   0.4396 C.ar           1 <1>                0.0000
     17 C17          0.2282   1.1922  -0.6036 C.ar           1 <1>                0.0000
     18 H18         -1.2082   5.8582   0.0575 H              1 <1>                0.0000
     19 H19          0.5715   5.8735   0.0320 H              1 <1>                0.0000
     20 H20         -0.3405   5.8698  -1.4966 H              1 <1>                0.0000
     21 H21          0.7779   3.8105   1.2133 H              1 <1>                0.0000
     22 H22          0.1345   1.8530   2.7149 H              1 <1>                0.0000
     23 H23          0.0100  -0.5978   2.8053 H              1 <1>                0.0000
     24 H24         -0.7072  -1.0950  -2.2893 H              1 <1>                0.0000
     25 H25          1.0768  -1.1829  -2.2182 H              1 <1>                0.0000
     26 H26          0.0498  -4.0530  -2.4560 H              1 <1>                0.0000
     27 H27         -0.1064  -5.9288  -0.8677 H              1 <1>                0.0000
     28 H28         -0.1813  -5.4937   1.5525 H              1 <1>                0.0000
     29 H29         -0.1024  -3.1869   2.3973 H              1 <1>                0.0000
     30 H30          0.2911   1.6967  -1.5565 H              1 <1>                0.0000
@<TRIPOS>BOND
    1    1    2 1     
    2    1   18 1     
    3    1   19 1     
    4    1   20 1     
    5    2    3 2     
    6    2    4 am    
    7    4    5 1     
    8    4   21 1     
    9    5   17 ar    
   10    5    6 ar    
   11    6    7 ar    
   12    6   22 1     
   13    7    8 ar    
   14    7   23 1     
   15    8   16 1     
   16    8    9 ar    
   17    9   10 1     
   18    9   17 ar    
   19   10   11 1     
   20   10   24 1     
   21   10   25 1     
   22   11   16 ar    
   23   11   12 ar    
   24   12   13 ar    
   25   12   26 1     
   26   13   14 ar    
   27   13   27 1     
   28   14   15 ar    
   29   14   28 1     
   30   15   16 ar    
   31   15   29 1     
   32   17   30 1     
@<TRIPOS>SUBSTRUCTURE
      1 ****           1
@<TRIPOS>SET
DONOR_HYDROGENS      STATIC     ATOMS    <user>   **** ""
1 21
ATOM$RED        STATIC     ATOMS    COLORGROUP SYSTEM
1 21
