#       Name:                AFS
#       Creating user name   gbret
#       Creation time:       Fri Sep  9 03:43:09 2016


#       File generated by GOLD software.
#

@<TRIPOS>MOLECULE
AFS
    24    23     1
SMALL
NO_CHARGES


@<TRIPOS>ATOM
      1 C1           1.8777   1.7664   0.5703 C.3            1 <1>                0.0000
      2 C2           1.8985   0.2365   0.5619 C.3            1 <1>                0.0000
      3 N3           2.6090  -0.2501   1.7520 N.4            1 <1>                0.0000
      4 H4           2.1367   0.0753   2.5822 H              1 <1>                0.0000
      5 H5           2.6227  -1.2590   1.7465 H              1 <1>                0.0000
      6 H6           3.5556   0.0992   1.7449 H              1 <1>                0.0000
      7 C7           0.4847  -0.2851   0.5726 C.2            1 <1>                0.0000
      8 O8           0.1062  -0.9926   1.4821 O.2            1 <1>                0.0000
      9 N9          -0.3592   0.0346  -0.4285 N.am           1 <1>                0.0000
     10 C10         -1.7336  -0.4725  -0.4181 C.3            1 <1>                0.0000
     11 C11         -2.6978   0.6602  -0.7762 C.3            1 <1>                0.0000
     12 P12         -1.8947  -1.8165  -1.6392 P.3            1 <1>                0.0000
     13 O13         -1.2136  -3.1127  -1.0820 O.co2          1 <1>                0.0000
     14 O14         -3.4121  -2.0983  -1.9084 O.co2          1 <1>                0.0000
     15 O15         -1.1968  -1.3934  -2.9765 O.co2          1 <1>                0.0000
     16 H16          2.9003   2.1437   0.5626 H              1 <1>                0.0000
     17 H17          1.3505   2.1274  -0.3127 H              1 <1>                0.0000
     18 H18          1.3675   2.1179   1.4671 H              1 <1>                0.0000
     19 H19          2.4087  -0.1150  -0.3349 H              1 <1>                0.0000
     20 H20         -0.0565   0.6004  -1.1559 H              1 <1>                0.0000
     21 H21         -1.9729  -0.8531   0.5749 H              1 <1>                0.0000
     22 H22         -2.4584   1.0408  -1.7691 H              1 <1>                0.0000
     23 H23         -3.7204   0.2829  -0.7684 H              1 <1>                0.0000
     24 H24         -2.6015   1.4638  -0.0461 H              1 <1>                0.0000
@<TRIPOS>BOND
    1    1    2 1     
    2    1   16 1     
    3    1   17 1     
    4    1   18 1     
    5    2    3 1     
    6    2    7 1     
    7    2   19 1     
    8    3    4 1     
    9    3    5 1     
   10    3    6 1     
   11    7    8 2     
   12    7    9 am    
   13    9   10 1     
   14    9   20 1     
   15   10   11 1     
   16   10   12 1     
   17   10   21 1     
   18   11   22 1     
   19   11   23 1     
   20   11   24 1     
   21   12   13 ar    
   22   12   14 ar    
   23   12   15 ar    
@<TRIPOS>SUBSTRUCTURE
      1 ****           1
@<TRIPOS>SET
DONOR_HYDROGENS      STATIC     ATOMS    <user>   **** ""
4 4 5 6 20
ATOM$RED        STATIC     ATOMS    COLORGROUP SYSTEM
4 4 5 6 20
