#       Name:                AIT
#       Creating user name   gbret
#       Creation time:       Fri Sep  9 03:48:51 2016


#       File generated by GOLD software.
#

@<TRIPOS>MOLECULE
AIT
    63    67     1
SMALL
NO_CHARGES


@<TRIPOS>ATOM
      1 C1           3.5366   3.6592   2.4524 C.3            1 <1>                0.0000
      2 C2           3.9422   2.1884   2.5660 C.3            1 <1>                0.0000
      3 C3           2.6917   1.3087   2.5102 C.3            1 <1>                0.0000
      4 O4           1.9527   1.6059   1.3238 O.3            1 <1>                0.0000
      5 C5           0.8053   0.9067   1.1202 C.ar           1 <1>                0.0000
      6 C6           0.3960  -0.0418   2.0462 C.ar           1 <1>                0.0000
      7 C7          -0.7710  -0.7509   1.8371 C.ar           1 <1>                0.0000
      8 C8          -1.5307  -0.5163   0.7059 C.ar           1 <1>                0.0000
      9 C9          -1.1247   0.4282  -0.2187 C.ar           1 <1>                0.0000
     10 C10          0.0383   1.1443  -0.0112 C.ar           1 <1>                0.0000
     11 C11         -2.8030  -1.2916   0.4802 C.3            1 <1>                0.0000
     12 O12         -3.7572  -0.4616  -0.1649 O.3            1 <1>                0.0000
     13 C13         -4.9820  -0.9215  -0.5137 C.ar           1 <1>                0.0000
     14 C14         -5.9960   0.0191  -0.6814 C.ar           1 <1>                0.0000
     15 C15         -7.2659  -0.3731  -1.0506 C.ar           1 <1>                0.0000
     16 C16         -7.5481  -1.7151  -1.2600 C.ar           1 <1>                0.0000
     17 O17         -8.7984  -2.1011  -1.6300 O.3            1 <1>                0.0000
     18 C18         -6.5494  -2.6596  -1.0906 C.ar           1 <1>                0.0000
     19 C19         -5.2712  -2.2662  -0.7128 C.ar           1 <1>                0.0000
     20 S20         -4.0340  -3.5038  -0.4760 S.3            1 <1>                0.0000
     21 C21         -2.5129  -2.5074  -0.4146 C.3            1 <1>                0.0000
     22 C22         -2.1434  -2.0485  -1.8017 C.ar           1 <1>                0.0000
     23 C23         -0.8213  -2.0681  -2.2059 C.ar           1 <1>                0.0000
     24 C24         -0.4801  -1.6479  -3.4768 C.ar           1 <1>                0.0000
     25 C25         -1.4653  -1.2064  -4.3481 C.ar           1 <1>                0.0000
     26 O26         -1.1323  -0.7930  -5.5991 O.3            1 <1>                0.0000
     27 C27         -2.7912  -1.1881  -3.9402 C.ar           1 <1>                0.0000
     28 C28         -3.1279  -1.6139  -2.6699 C.ar           1 <1>                0.0000
     29 N29          4.8362   1.8397   1.4537 N.4            1 <1>                0.0000
     30 H30          4.3660   2.0012   0.5757 H              1 <1>                0.0000
     31 C31          5.2253   0.4170   1.5554 C.3            1 <1>                0.0000
     32 C32          6.6958   0.3734   1.0701 C.3            1 <1>                0.0000
     33 C33          7.2546   1.7021   1.6437 C.3            1 <1>                0.0000
     34 C34          6.0573   2.6634   1.5216 C.3            1 <1>                0.0000
     35 H35          4.4275   4.2860   2.4921 H              1 <1>                0.0000
     36 H36          3.0200   3.8216   1.5064 H              1 <1>                0.0000
     37 H37          2.8732   3.9180   3.2777 H              1 <1>                0.0000
     38 H38          4.4588   2.0260   3.5120 H              1 <1>                0.0000
     39 H39          2.9859   0.2591   2.5017 H              1 <1>                0.0000
     40 H40          2.0703   1.5047   3.3840 H              1 <1>                0.0000
     41 H41          0.9894  -0.2260   2.9295 H              1 <1>                0.0000
     42 H42         -1.0900  -1.4894   2.5577 H              1 <1>                0.0000
     43 H43         -1.7196   0.6094  -1.1016 H              1 <1>                0.0000
     44 H44          0.3550   1.8819  -0.7337 H              1 <1>                0.0000
     45 H45         -3.1992  -1.6295   1.4378 H              1 <1>                0.0000
     46 H46         -5.7855   1.0661  -0.5211 H              1 <1>                0.0000
     47 H47         -8.0427   0.3666  -1.1767 H              1 <1>                0.0000
     48 H48         -8.9348  -2.1275  -2.5870 H              1 <1>                0.0000
     49 H49         -6.7646  -3.7054  -1.2527 H              1 <1>                0.0000
     50 H50         -1.7004  -3.0961   0.0114 H              1 <1>                0.0000
     51 H51         -0.0547  -2.4119  -1.5273 H              1 <1>                0.0000
     52 H52          0.5528  -1.6628  -3.7919 H              1 <1>                0.0000
     53 H53         -1.1398  -1.4976  -6.2612 H              1 <1>                0.0000
     54 H54         -3.5600  -0.8446  -4.6165 H              1 <1>                0.0000
     55 H55         -4.1599  -1.6002  -2.3520 H              1 <1>                0.0000
     56 H56          5.1566   0.0777   2.5889 H              1 <1>                0.0000
     57 H57          4.5948  -0.1958   0.9112 H              1 <1>                0.0000
     58 H58          7.2204  -0.4846   1.4905 H              1 <1>                0.0000
     59 H59          6.7476   0.3657  -0.0187 H              1 <1>                0.0000
     60 H60          7.5443   1.5797   2.6873 H              1 <1>                0.0000
     61 H61          8.0963   2.0553   1.0479 H              1 <1>                0.0000
     62 H62          6.1506   3.2584   0.6131 H              1 <1>                0.0000
     63 H63          6.0161   3.3169   2.3929 H              1 <1>                0.0000
@<TRIPOS>BOND
    1    1    2 1     
    2    1   35 1     
    3    1   36 1     
    4    1   37 1     
    5    2    3 1     
    6    2   29 1     
    7    2   38 1     
    8    3    4 1     
    9    3   39 1     
   10    3   40 1     
   11    4    5 1     
   12    5   10 ar    
   13    5    6 ar    
   14    6    7 ar    
   15    6   41 1     
   16    7    8 ar    
   17    7   42 1     
   18    8    9 ar    
   19    8   11 1     
   20    9   10 ar    
   21    9   43 1     
   22   10   44 1     
   23   11   21 1     
   24   11   12 1     
   25   11   45 1     
   26   12   13 1     
   27   13   19 ar    
   28   13   14 ar    
   29   14   15 ar    
   30   14   46 1     
   31   15   16 ar    
   32   15   47 1     
   33   16   17 1     
   34   16   18 ar    
   35   17   48 1     
   36   18   19 ar    
   37   18   49 1     
   38   19   20 1     
   39   20   21 1     
   40   21   22 1     
   41   21   50 1     
   42   22   28 ar    
   43   22   23 ar    
   44   23   24 ar    
   45   23   51 1     
   46   24   25 ar    
   47   24   52 1     
   48   25   26 1     
   49   25   27 ar    
   50   26   53 1     
   51   27   28 ar    
   52   27   54 1     
   53   28   55 1     
   54   29   30 1     
   55   29   34 1     
   56   29   31 1     
   57   31   32 1     
   58   31   56 1     
   59   31   57 1     
   60   32   33 1     
   61   32   58 1     
   62   32   59 1     
   63   33   34 1     
   64   33   60 1     
   65   33   61 1     
   66   34   62 1     
   67   34   63 1     
@<TRIPOS>SUBSTRUCTURE
      1 ****           1
@<TRIPOS>SET
DONOR_HYDROGENS      STATIC     ATOMS    <user>   **** ""
3 48 53 30
ATOM$RED        STATIC     ATOMS    COLORGROUP SYSTEM
3 48 53 30
