#       Name:                AK3
#       Creating user name   gbret
#       Creation time:       Fri Sep  9 03:50:29 2016


#       File generated by GOLD software.
#

@<TRIPOS>MOLECULE
AK3
    49    52     1
SMALL
NO_CHARGES


@<TRIPOS>ATOM
      1 C1          -1.9019  -1.1086  -6.9583 C.3            1 <1>                0.0000
      2 N2          -1.9004  -2.5684  -6.8351 N.pl3          1 <1>                0.0000
      3 N3          -2.1689  -3.4821  -7.8629 N.2            1 <1>                0.0000
      4 C4          -2.0803  -4.6982  -7.4021 C.2            1 <1>                0.0000
      5 C5          -1.7451  -4.6403  -6.0324 C.ar           1 <1>                0.0000
      6 N6          -1.5311  -5.5586  -5.0809 N.ar           1 <1>                0.0000
      7 C7          -1.2257  -5.1931  -3.8576 C.ar           1 <1>                0.0000
      8 N8          -1.1139  -3.9248  -3.5008 N.ar           1 <1>                0.0000
      9 C9          -1.3078  -2.9438  -4.3747 C.ar           1 <1>                0.0000
     10 N10         -1.1877  -1.6197  -3.9901 N.pl3          1 <1>                0.0000
     11 C11         -0.9667  -1.2833  -2.5815 C.3            1 <1>                0.0000
     12 C12         -0.8709   0.2361  -2.4291 C.3            1 <1>                0.0000
     13 C13         -0.6436   0.5822  -0.9801 C.2            1 <1>                0.0000
     14 C14          0.5420   0.7156  -0.3831 C.2            1 <1>                0.0000
     15 N15          0.4794   1.0241   0.8991 N.2            1 <1>                0.0000
     16 C16         -0.7030   1.1576   1.4133 C.2            1 <1>                0.0000
     17 N17         -0.9624   1.4789   2.7404 N.am           1 <1>                0.0000
     18 C18          0.0585   1.6762   3.5979 C.2            1 <1>                0.0000
     19 O19          1.2064   1.5731   3.2106 O.2            1 <1>                0.0000
     20 N20         -0.1930   1.9879   4.8848 N.am           1 <1>                0.0000
     21 C21          0.8637   2.2916   5.7505 C.ar           1 <1>                0.0000
     22 C22          0.7799   1.9554   7.0955 C.ar           1 <1>                0.0000
     23 C23          1.8243   2.2566   7.9473 C.ar           1 <1>                0.0000
     24 C24          2.9528   2.8923   7.4623 C.ar           1 <1>                0.0000
     25 C25          3.0392   3.2282   6.1240 C.ar           1 <1>                0.0000
     26 C26          2.0004   2.9246   5.2656 C.ar           1 <1>                0.0000
     27 C27          4.2707   3.9208   5.5998 C.3            1 <1>                0.0000
     28 F28          5.1781   4.1147   6.6468 F              1 <1>                0.0000
     29 F29          4.8638   3.1311   4.6089 F              1 <1>                0.0000
     30 F30          3.9135   5.1597   5.0569 F              1 <1>                0.0000
     31 S31         -1.8969   0.8888   0.2194 S.3            1 <1>                0.0000
     32 C32         -1.6307  -3.2795  -5.6974 C.ar           1 <1>                0.0000
     33 H33         -0.8852  -0.7578  -7.1352 H              1 <1>                0.0000
     34 H34         -2.5380  -0.8151  -7.7934 H              1 <1>                0.0000
     35 H35         -2.2837  -0.6667  -6.0380 H              1 <1>                0.0000
     36 H36         -2.2377  -5.6008  -7.9738 H              1 <1>                0.0000
     37 H37         -1.0596  -5.9582  -3.1136 H              1 <1>                0.0000
     38 H38         -1.2499  -0.9145  -4.6532 H              1 <1>                0.0000
     39 H39         -1.7984  -1.6566  -1.9840 H              1 <1>                0.0000
     40 H40         -0.0389  -1.7419  -2.2396 H              1 <1>                0.0000
     41 H41         -0.0393   0.6095  -3.0266 H              1 <1>                0.0000
     42 H42         -1.7987   0.6948  -2.7709 H              1 <1>                0.0000
     43 H43          1.4773   0.5818  -0.9062 H              1 <1>                0.0000
     44 H44         -1.8781   1.5612   3.0495 H              1 <1>                0.0000
     45 H45         -1.1064   2.0016   5.2109 H              1 <1>                0.0000
     46 H46         -0.1012   1.4593   7.4749 H              1 <1>                0.0000
     47 H47          1.7597   1.9958   8.9933 H              1 <1>                0.0000
     48 H48          3.7681   3.1270   8.1306 H              1 <1>                0.0000
     49 H49          2.0686   3.1870   4.2202 H              1 <1>                0.0000
@<TRIPOS>BOND
    1    1    2 1     
    2    1   33 1     
    3    1   34 1     
    4    1   35 1     
    5    2   32 1     
    6    2    3 1     
    7    3    4 2     
    8    4    5 1     
    9    4   36 1     
   10    5   32 ar    
   11    5    6 ar    
   12    6    7 ar    
   13    7    8 ar    
   14    7   37 1     
   15    8    9 ar    
   16    9   10 1     
   17    9   32 ar    
   18   10   11 1     
   19   10   38 1     
   20   11   12 1     
   21   11   39 1     
   22   11   40 1     
   23   12   13 1     
   24   12   41 1     
   25   12   42 1     
   26   13   31 1     
   27   13   14 2     
   28   14   15 1     
   29   14   43 1     
   30   15   16 2     
   31   16   17 1     
   32   16   31 1     
   33   17   18 am    
   34   17   44 1     
   35   18   19 2     
   36   18   20 am    
   37   20   21 1     
   38   20   45 1     
   39   21   26 ar    
   40   21   22 ar    
   41   22   23 ar    
   42   22   46 1     
   43   23   24 ar    
   44   23   47 1     
   45   24   25 ar    
   46   24   48 1     
   47   25   26 ar    
   48   25   27 1     
   49   26   49 1     
   50   27   28 1     
   51   27   29 1     
   52   27   30 1     
@<TRIPOS>SUBSTRUCTURE
      1 ****           1
@<TRIPOS>SET
DONOR_HYDROGENS      STATIC     ATOMS    <user>   **** ""
3 38 44 45
ATOM$RED        STATIC     ATOMS    COLORGROUP SYSTEM
3 38 44 45
