#       Name:                AN2
#       Creating user name   gbret
#       Creation time:       Fri Sep  9 03:56:48 2016


#       File generated by GOLD software.
#

@<TRIPOS>MOLECULE
AN2
    41    43     1
SMALL
NO_CHARGES


@<TRIPOS>ATOM
      1 N1          -4.4062   5.0235   0.5661 N.pl3          1 <1>                0.0000
      2 C2          -4.3874   3.6397   0.5585 C.ar           1 <1>                0.0000
      3 N3          -5.5200   2.9443   0.5601 N.ar           1 <1>                0.0000
      4 C4          -5.5118   1.6239   0.5529 C.ar           1 <1>                0.0000
      5 N5          -4.3967   0.9242   0.5443 N.ar           1 <1>                0.0000
      6 C6          -3.2153   1.5328   0.5421 C.ar           1 <1>                0.0000
      7 N7          -1.9092   1.1129   0.5345 N.pl3          1 <1>                0.0000
      8 C8          -1.1221   2.2258   0.5369 C.2            1 <1>                0.0000
      9 N9          -1.8639   3.2951   0.5454 N.2            1 <1>                0.0000
     10 C10         -3.1706   2.9373   0.5431 C.ar           1 <1>                0.0000
     11 C11         -1.4455  -0.2768   0.5260 C.3            1 <1>                0.0000
     12 O12         -0.0845  -0.3497   0.0483 O.3            1 <1>                0.0000
     13 C13          0.4224  -1.6116   0.5347 C.3            1 <1>                0.0000
     14 C14          1.9522  -1.5996   0.5531 C.3            1 <1>                0.0000
     15 O15          2.4442  -1.5308  -0.7868 O.3            1 <1>                0.0000
     16 P16          4.0137  -1.5004  -1.1442 P.3            1 <1>                0.0000
     17 O17          4.6417  -0.1998  -0.5954 O.co2          1 <1>                0.0000
     18 O18          4.7118  -2.7201  -0.5023 O.co2          1 <1>                0.0000
     19 O19          4.2014  -1.5542  -2.7423 O.3            1 <1>                0.0000
     20 P20          5.4232  -1.9525  -3.7121 P.3            1 <1>                0.0000
     21 N21          4.9432  -1.7859  -5.3166 N.3            1 <1>                0.0000
     22 O22          6.6252  -1.0223  -3.4349 O.co2          1 <1>                0.0000
     23 O23          5.8343  -3.4181  -3.4471 O.co2          1 <1>                0.0000
     24 C24         -0.1317  -1.7320   1.9717 C.3            1 <1>                0.0000
     25 O25          0.8236  -1.2501   2.9188 O.3            1 <1>                0.0000
     26 C26         -1.3888  -0.8337   1.9658 C.3            1 <1>                0.0000
     27 O27         -1.2482   0.2305   2.9091 O.3            1 <1>                0.0000
     28 H28         -3.5728   5.5199   0.5608 H              1 <1>                0.0000
     29 H29         -5.2527   5.4970   0.5727 H              1 <1>                0.0000
     30 H30         -6.4552   1.0982   0.5545 H              1 <1>                0.0000
     31 H31         -0.0421   2.2210   0.5329 H              1 <1>                0.0000
     32 H32         -2.1000  -0.8906  -0.0928 H              1 <1>                0.0000
     33 H33          0.0575  -2.4311  -0.0844 H              1 <1>                0.0000
     34 H34          2.3021  -0.7327   1.1135 H              1 <1>                0.0000
     35 H35          2.3170  -2.5105   1.0278 H              1 <1>                0.0000
     36 H36          5.6933  -2.0303  -5.9457 H              1 <1>                0.0000
     37 H37          4.1186  -2.3356  -5.5063 H              1 <1>                0.0000
     38 H38         -0.3992  -2.7653   2.1925 H              1 <1>                0.0000
     39 H39          0.5273  -1.3024   3.8378 H              1 <1>                0.0000
     40 H40         -2.2800  -1.4225   2.1829 H              1 <1>                0.0000
     41 H41         -1.1476  -0.0657   3.8241 H              1 <1>                0.0000
@<TRIPOS>BOND
    1    1    2 1     
    2    1   28 1     
    3    1   29 1     
    4    2   10 ar    
    5    2    3 ar    
    6    3    4 ar    
    7    4    5 ar    
    8    4   30 1     
    9    5    6 ar    
   10    6   10 ar    
   11    6    7 1     
   12    7    8 1     
   13    7   11 1     
   14    8    9 2     
   15    8   31 1     
   16    9   10 1     
   17   11   26 1     
   18   11   12 1     
   19   11   32 1     
   20   12   13 1     
   21   13   14 1     
   22   13   24 1     
   23   13   33 1     
   24   14   15 1     
   25   14   34 1     
   26   14   35 1     
   27   15   16 1     
   28   16   17 ar    
   29   16   18 ar    
   30   16   19 1     
   31   19   20 1     
   32   20   21 1     
   33   20   22 ar    
   34   20   23 ar    
   35   21   36 1     
   36   21   37 1     
   37   24   25 1     
   38   24   26 1     
   39   24   38 1     
   40   25   39 1     
   41   26   27 1     
   42   26   40 1     
   43   27   41 1     
@<TRIPOS>SUBSTRUCTURE
      1 ****           1
@<TRIPOS>SET
DONOR_HYDROGENS      STATIC     ATOMS    <user>   **** ""
6 28 29 36 37 39 41
ATOM$RED        STATIC     ATOMS    COLORGROUP SYSTEM
6 28 29 36 37 39 41
