#       Name:                AO1
#       Creating user name   gbret
#       Creation time:       Fri Sep  9 03:58:52 2016


#       File generated by GOLD software.
#

@<TRIPOS>MOLECULE
AO1
    51    52     1
SMALL
NO_CHARGES


@<TRIPOS>ATOM
      1 C1           5.3947   3.9084  -3.2434 C.3            1 <1>                0.0000
      2 C2           4.2200   4.0087  -2.2682 C.3            1 <1>                0.0000
      3 S3           2.8631   2.9522  -2.8456 S.3            1 <1>                0.0000
      4 C4           1.5859   3.2013  -1.5817 C.3            1 <1>                0.0000
      5 C5           0.3539   2.3635  -1.9296 C.3            1 <1>                0.0000
      6 C6          -0.7233   2.5735  -0.8636 C.3            1 <1>                0.0000
      7 N7          -1.1803   3.9693  -0.8976 N.4            1 <1>                0.0000
      8 H8          -1.4788   4.2027  -1.8327 H              1 <1>                0.0000
      9 H9          -1.9527   4.0859  -0.2590 H              1 <1>                0.0000
     10 H10         -0.4232   4.5778  -0.6245 H              1 <1>                0.0000
     11 C11         -1.9053   1.6430  -1.1426 C.3            1 <1>                0.0000
     12 O12         -2.3988   1.8824  -2.4621 O.3            1 <1>                0.0000
     13 C13         -1.4543   0.2097  -1.0273 C.2            1 <1>                0.0000
     14 O14         -1.4454  -0.5040  -2.0079 O.2            1 <1>                0.0000
     15 N15         -1.0609  -0.2791   0.1655 N.am           1 <1>                0.0000
     16 C16         -0.7288  -1.6995   0.3015 C.3            1 <1>                0.0000
     17 C17          0.7577  -1.9064   0.0042 C.3            1 <1>                0.0000
     18 C18         -1.0277  -2.1528   1.7073 C.ar           1 <1>                0.0000
     19 C19         -0.9872  -1.2628   2.7364 C.ar           1 <1>                0.0000
     20 C20         -1.2610  -1.6633   4.0425 C.ar           1 <1>                0.0000
     21 C21         -1.5767  -2.9564   4.3275 C.ar           1 <1>                0.0000
     22 C22         -1.6285  -3.9039   3.2913 C.ar           1 <1>                0.0000
     23 C23         -1.9512  -5.2478   3.5464 C.ar           1 <1>                0.0000
     24 C24         -1.9921  -6.1375   2.5175 C.ar           1 <1>                0.0000
     25 C25         -1.7180  -5.7369   1.2109 C.ar           1 <1>                0.0000
     26 C26         -1.4015  -4.4443   0.9261 C.ar           1 <1>                0.0000
     27 C27         -1.3554  -3.4952   1.9617 C.ar           1 <1>                0.0000
     28 H28          6.2101   4.5432  -2.8965 H              1 <1>                0.0000
     29 H29          5.7362   2.8746  -3.2959 H              1 <1>                0.0000
     30 H30          5.0748   4.2361  -4.2325 H              1 <1>                0.0000
     31 H31          4.5400   3.6810  -1.2791 H              1 <1>                0.0000
     32 H32          3.8786   5.0425  -2.2158 H              1 <1>                0.0000
     33 H33          1.9718   2.8939  -0.6097 H              1 <1>                0.0000
     34 H34          1.3104   4.2553  -1.5464 H              1 <1>                0.0000
     35 H35         -0.0319   2.6709  -2.9015 H              1 <1>                0.0000
     36 H36          0.6295   1.3095  -1.9649 H              1 <1>                0.0000
     37 H37         -0.3096   2.3506   0.1199 H              1 <1>                0.0000
     38 H38         -2.6971   1.8341  -0.4183 H              1 <1>                0.0000
     39 H39         -1.7462   1.7316  -3.1596 H              1 <1>                0.0000
     40 H40         -0.9977   0.3095   0.9338 H              1 <1>                0.0000
     41 H41         -1.3244  -2.2809  -0.4022 H              1 <1>                0.0000
     42 H42          1.3534  -1.3249   0.7079 H              1 <1>                0.0000
     43 H43          1.0049  -2.9632   0.1054 H              1 <1>                0.0000
     44 H44          0.9740  -1.5785  -1.0126 H              1 <1>                0.0000
     45 H45         -0.7387  -0.2307   2.5376 H              1 <1>                0.0000
     46 H46         -1.2219  -0.9370   4.8409 H              1 <1>                0.0000
     47 H47         -1.7859  -3.2526   5.3448 H              1 <1>                0.0000
     48 H48         -2.1653  -5.5728   4.5539 H              1 <1>                0.0000
     49 H49         -2.2403  -7.1696   2.7163 H              1 <1>                0.0000
     50 H50         -1.7570  -6.4632   0.4126 H              1 <1>                0.0000
     51 H51         -1.1911  -4.1484  -0.0910 H              1 <1>                0.0000
@<TRIPOS>BOND
    1    1    2 1     
    2    1   28 1     
    3    1   29 1     
    4    1   30 1     
    5    2    3 1     
    6    2   31 1     
    7    2   32 1     
    8    3    4 1     
    9    4    5 1     
   10    4   33 1     
   11    4   34 1     
   12    5    6 1     
   13    5   35 1     
   14    5   36 1     
   15    6    7 1     
   16    6   11 1     
   17    6   37 1     
   18    7    8 1     
   19    7    9 1     
   20    7   10 1     
   21   11   12 1     
   22   11   13 1     
   23   11   38 1     
   24   12   39 1     
   25   13   14 2     
   26   13   15 am    
   27   15   16 1     
   28   15   40 1     
   29   16   17 1     
   30   16   18 1     
   31   16   41 1     
   32   17   42 1     
   33   17   43 1     
   34   17   44 1     
   35   18   27 ar    
   36   18   19 ar    
   37   19   20 ar    
   38   19   45 1     
   39   20   21 ar    
   40   20   46 1     
   41   21   22 ar    
   42   21   47 1     
   43   22   27 ar    
   44   22   23 ar    
   45   23   24 ar    
   46   23   48 1     
   47   24   25 ar    
   48   24   49 1     
   49   25   26 ar    
   50   25   50 1     
   51   26   27 ar    
   52   26   51 1     
@<TRIPOS>SUBSTRUCTURE
      1 ****           1
@<TRIPOS>SET
DONOR_HYDROGENS      STATIC     ATOMS    <user>   **** ""
5 8 9 10 39 40
ATOM$RED        STATIC     ATOMS    COLORGROUP SYSTEM
5 8 9 10 39 40
