#       Name:                APM
#       Creating user name   gbret
#       Creation time:       Fri Sep  9 04:01:53 2016


#       File generated by GOLD software.
#

@<TRIPOS>MOLECULE
APM
    29    29     1
SMALL
NO_CHARGES


@<TRIPOS>ATOM
      1 N1           1.8386   3.4313   1.1141 N.pl3          1 <1>                0.0000
      2 C2           1.8567   2.1000   1.1068 C.2            1 <1>                0.0000
      3 N3           3.0186   1.4501   1.0922 N.pl3          1 <1>                0.0000
      4 H4           3.8520   1.9465   1.0868 H              1 <1>                0.0000
      5 H5           3.0318   0.4802   1.0869 H              1 <1>                0.0000
      6 C6           0.5854   1.3428   1.1149 C.ar           1 <1>                0.0000
      7 C7          -0.5470   1.8814   1.7269 C.ar           1 <1>                0.0000
      8 C8          -1.7293   1.1707   1.7307 C.ar           1 <1>                0.0000
      9 C9          -1.7938  -0.0738   1.1292 C.ar           1 <1>                0.0000
     10 C10         -0.6746  -0.6134   0.5211 C.ar           1 <1>                0.0000
     11 C11         -0.7535  -1.9696  -0.1311 C.3            1 <1>                0.0000
     12 C12         -1.1576  -1.8074  -1.5979 C.3            1 <1>                0.0000
     13 N13         -0.0994  -1.0894  -2.3208 N.4            1 <1>                0.0000
     14 H14          0.7611  -1.6134  -2.2650 H              1 <1>                0.0000
     15 H15         -0.3658  -0.9824  -3.2881 H              1 <1>                0.0000
     16 H16          0.0335  -0.1794  -1.9059 H              1 <1>                0.0000
     17 C17         -1.3561  -3.1666  -2.2176 C.2            1 <1>                0.0000
     18 O18         -2.4536  -3.6967  -2.1858 O.co2          1 <1>                0.0000
     19 O19         -0.4192  -3.7363  -2.7507 O.co2          1 <1>                0.0000
     20 C20          0.5125   0.0900   0.5056 C.ar           1 <1>                0.0000
     21 H21          2.6720   3.9277   1.1088 H              1 <1>                0.0000
     22 H22          0.9921   3.9049   1.1207 H              1 <1>                0.0000
     23 H23         -0.4978   2.8525   2.1971 H              1 <1>                0.0000
     24 H24         -2.6064   1.5863   2.2044 H              1 <1>                0.0000
     25 H25         -2.7217  -0.6263   1.1347 H              1 <1>                0.0000
     26 H26          0.2196  -2.4574  -0.0742 H              1 <1>                0.0000
     27 H27         -1.4959  -2.5784   0.3850 H              1 <1>                0.0000
     28 H28         -2.0872  -1.2413  -1.6582 H              1 <1>                0.0000
     29 H29          1.3857  -0.3323   0.0306 H              1 <1>                0.0000
@<TRIPOS>BOND
    1    1    2 2     
    2    1   21 1     
    3    1   22 1     
    4    2    3 1     
    5    2    6 1     
    6    3    4 1     
    7    3    5 1     
    8    6   20 ar    
    9    6    7 ar    
   10    7    8 ar    
   11    7   23 1     
   12    8    9 ar    
   13    8   24 1     
   14    9   10 ar    
   15    9   25 1     
   16   10   11 1     
   17   10   20 ar    
   18   11   12 1     
   19   11   26 1     
   20   11   27 1     
   21   12   13 1     
   22   12   17 1     
   23   12   28 1     
   24   13   14 1     
   25   13   15 1     
   26   13   16 1     
   27   17   18 ar    
   28   17   19 ar    
   29   20   29 1     
@<TRIPOS>SUBSTRUCTURE
      1 ****           1
@<TRIPOS>SET
DONOR_HYDROGENS      STATIC     ATOMS    <user>   **** ""
7 21 22 4 5 14 15 16
ATOM$RED        STATIC     ATOMS    COLORGROUP SYSTEM
7 21 22 4 5 14 15 16
