#       Name:                AVG
#       Creating user name   gbret
#       Creation time:       Fri Sep  9 04:11:37 2016


#       File generated by GOLD software.
#

@<TRIPOS>MOLECULE
AVG
    26    25     1
SMALL
NO_CHARGES


@<TRIPOS>ATOM
      1 N1           2.9085   2.2469  -1.0038 N.4            1 <1>                0.0000
      2 H2           2.9222   1.2380  -1.0094 H              1 <1>                0.0000
      3 H3           3.8551   2.5962  -1.0110 H              1 <1>                0.0000
      4 H4           2.4205   2.5812  -1.8213 H              1 <1>                0.0000
      5 C5           2.2209   2.7207   0.2048 C.3            1 <1>                0.0000
      6 C6           0.7855   2.1911   0.2156 C.3            1 <1>                0.0000
      7 O7           0.8042   0.7664   0.3252 O.3            1 <1>                0.0000
      8 C8          -0.4932   0.1678   0.3442 C.3            1 <1>                0.0000
      9 C9          -0.3525  -1.3510   0.4636 C.3            1 <1>                0.0000
     10 C10         -1.7416  -1.9919   0.4839 C.3            1 <1>                0.0000
     11 N11         -2.4053  -1.7633  -0.8065 N.4            1 <1>                0.0000
     12 H12         -1.8554  -2.1757  -1.5452 H              1 <1>                0.0000
     13 H13         -3.3214  -2.1860  -0.7931 H              1 <1>                0.0000
     14 H14         -2.4949  -0.7713  -0.9676 H              1 <1>                0.0000
     15 C15         -1.6078  -3.4735   0.7245 C.2            1 <1>                0.0000
     16 O16         -1.6139  -3.9092   1.8632 O.co2          1 <1>                0.0000
     17 O17         -1.4934  -4.2365  -0.2195 O.co2          1 <1>                0.0000
     18 H18          2.7481   2.3596   1.0878 H              1 <1>                0.0000
     19 H19          2.2061   3.8106   0.2108 H              1 <1>                0.0000
     20 H20          0.2487   2.6138   1.0649 H              1 <1>                0.0000
     21 H21          0.2855   2.4778  -0.7095 H              1 <1>                0.0000
     22 H22         -1.0566   0.5486   1.1962 H              1 <1>                0.0000
     23 H23         -1.0198   0.4126  -0.5782 H              1 <1>                0.0000
     24 H24          0.2109  -1.7317  -0.3883 H              1 <1>                0.0000
     25 H25          0.1741  -1.5957   1.3860 H              1 <1>                0.0000
     26 H26         -2.3356  -1.5464   1.2819 H              1 <1>                0.0000
@<TRIPOS>BOND
    1    1    2 1     
    2    1    3 1     
    3    1    4 1     
    4    1    5 1     
    5    5    6 1     
    6    5   18 1     
    7    5   19 1     
    8    6    7 1     
    9    6   20 1     
   10    6   21 1     
   11    7    8 1     
   12    8    9 1     
   13    8   22 1     
   14    8   23 1     
   15    9   10 1     
   16    9   24 1     
   17    9   25 1     
   18   10   11 1     
   19   10   15 1     
   20   10   26 1     
   21   11   12 1     
   22   11   13 1     
   23   11   14 1     
   24   15   16 ar    
   25   15   17 ar    
@<TRIPOS>SUBSTRUCTURE
      1 ****           1
@<TRIPOS>SET
DONOR_HYDROGENS      STATIC     ATOMS    <user>   **** ""
6 2 3 4 12 13 14
ATOM$RED        STATIC     ATOMS    COLORGROUP SYSTEM
6 2 3 4 12 13 14
