#       Name:                AVV
#       Creating user name   gbret
#       Creation time:       Fri Sep  9 04:12:12 2016


#       File generated by GOLD software.
#

@<TRIPOS>MOLECULE
AVV
    56    59     1
SMALL
NO_CHARGES


@<TRIPOS>ATOM
      1 N1          -5.8655   5.7137   3.0155 N.pl3          1 <1>                0.0000
      2 C2          -5.8467   4.3301   3.0079 C.ar           1 <1>                0.0000
      3 N3          -6.9795   3.6352   3.0094 N.ar           1 <1>                0.0000
      4 C4          -6.9712   2.3126   3.0017 C.ar           1 <1>                0.0000
      5 F5          -8.1509   1.6541   3.0036 F              1 <1>                0.0000
      6 N6          -5.8532   1.6132   2.9918 N.ar           1 <1>                0.0000
      7 C7          -4.6726   2.2240   2.9896 C.ar           1 <1>                0.0000
      8 N8          -3.3661   1.8054   2.9808 N.pl3          1 <1>                0.0000
      9 C9          -2.5798   2.9196   2.9839 C.2            1 <1>                0.0000
     10 N10         -3.3229   3.9877   2.9939 N.2            1 <1>                0.0000
     11 C11         -4.6296   3.6282   2.9925 C.ar           1 <1>                0.0000
     12 C12         -2.9010   0.4162   2.9701 C.3            1 <1>                0.0000
     13 O13         -1.5401   0.3454   2.4917 O.3            1 <1>                0.0000
     14 C14         -1.0317  -0.9166   2.9762 C.3            1 <1>                0.0000
     15 C15          0.4981  -0.9031   2.9939 C.3            1 <1>                0.0000
     16 O16          0.9894  -0.8320   1.6538 O.3            1 <1>                0.0000
     17 P17          2.5587  -0.7994   1.2958 P.3            1 <1>                0.0000
     18 O18          3.1856   0.5010   1.8461 O.co2          1 <1>                0.0000
     19 O19          3.2583  -2.0193   1.9356 O.co2          1 <1>                0.0000
     20 O20          2.7457  -0.8508  -0.3025 O.3            1 <1>                0.0000
     21 P21          3.9674  -1.2465  -1.2735 P.3            1 <1>                0.0000
     22 O22          5.0133  -0.1094  -1.2749 O.co2          1 <1>                0.0000
     23 O23          4.6249  -2.5503  -0.7687 O.co2          1 <1>                0.0000
     24 O24          3.4141  -1.4686  -2.7690 O.3            1 <1>                0.0000
     25 C25          4.2366  -1.9301  -3.8426 C.3            1 <1>                0.0000
     26 C26          3.3999  -2.0296  -5.1197 C.3            1 <1>                0.0000
     27 O27          3.0431  -0.7118  -5.5909 O.3            1 <1>                0.0000
     28 C28          2.7186  -0.8821  -6.9879 C.3            1 <1>                0.0000
     29 C29          3.7774  -1.8726  -7.5211 C.3            1 <1>                0.0000
     30 O30          4.8751  -1.1667  -8.1032 O.3            1 <1>                0.0000
     31 C31          4.2359  -2.6448  -6.2638 C.3            1 <1>                0.0000
     32 O32          5.6308  -2.4395  -6.0311 O.3            1 <1>                0.0000
     33 C33         -1.5850  -1.0396   4.4132 C.3            1 <1>                0.0000
     34 O34         -0.6297  -0.5580   5.3605 O.3            1 <1>                0.0000
     35 C35         -2.8431  -0.1426   4.4092 C.3            1 <1>                0.0000
     36 O36         -2.7031   0.9205   5.3538 O.3            1 <1>                0.0000
     37 H37         -5.0321   6.2101   3.0102 H              1 <1>                0.0000
     38 H38         -6.7120   6.1873   3.0221 H              1 <1>                0.0000
     39 H39         -1.4999   2.9160   2.9788 H              1 <1>                0.0000
     40 H40         -3.5551  -0.1974   2.3508 H              1 <1>                0.0000
     41 H41         -1.3961  -1.7357   2.3561 H              1 <1>                0.0000
     42 H42          0.8474  -0.0366   3.5553 H              1 <1>                0.0000
     43 H43          0.8641  -1.8143   3.4671 H              1 <1>                0.0000
     44 H44          5.0567  -1.2294  -3.9992 H              1 <1>                0.0000
     45 H45          4.6400  -2.9120  -3.5952 H              1 <1>                0.0000
     46 H46          2.5050  -2.6256  -4.9407 H              1 <1>                0.0000
     47 H47          1.7182  -1.3011  -7.0967 H              1 <1>                0.0000
     48 H48          2.7913   0.0702  -7.5132 H              1 <1>                0.0000
     49 H49          3.3328  -2.5521  -8.2482 H              1 <1>                0.0000
     50 H50          4.6319  -0.6171  -8.8607 H              1 <1>                0.0000
     51 H51          4.0175  -3.7077  -6.3676 H              1 <1>                0.0000
     52 H52          6.1995  -2.7530  -6.7476 H              1 <1>                0.0000
     53 H53         -1.8514  -2.0735   4.6328 H              1 <1>                0.0000
     54 H54         -0.9256  -0.6119   6.2796 H              1 <1>                0.0000
     55 H55         -3.7336  -0.7326   4.6259 H              1 <1>                0.0000
     56 H56         -2.6017   0.6231   6.2684 H              1 <1>                0.0000
@<TRIPOS>BOND
    1    1    2 1     
    2    1   37 1     
    3    1   38 1     
    4    2   11 ar    
    5    2    3 ar    
    6    3    4 ar    
    7    4    5 1     
    8    4    6 ar    
    9    6    7 ar    
   10    7   11 ar    
   11    7    8 1     
   12    8    9 1     
   13    8   12 1     
   14    9   10 2     
   15    9   39 1     
   16   10   11 1     
   17   12   35 1     
   18   12   13 1     
   19   12   40 1     
   20   13   14 1     
   21   14   15 1     
   22   14   33 1     
   23   14   41 1     
   24   15   16 1     
   25   15   42 1     
   26   15   43 1     
   27   16   17 1     
   28   17   18 ar    
   29   17   19 ar    
   30   17   20 1     
   31   20   21 1     
   32   21   22 ar    
   33   21   23 ar    
   34   21   24 1     
   35   24   25 1     
   36   25   26 1     
   37   25   44 1     
   38   25   45 1     
   39   26   31 1     
   40   26   27 1     
   41   26   46 1     
   42   27   28 1     
   43   28   29 1     
   44   28   47 1     
   45   28   48 1     
   46   29   30 1     
   47   29   31 1     
   48   29   49 1     
   49   30   50 1     
   50   31   32 1     
   51   31   51 1     
   52   32   52 1     
   53   33   34 1     
   54   33   35 1     
   55   33   53 1     
   56   34   54 1     
   57   35   36 1     
   58   35   55 1     
   59   36   56 1     
@<TRIPOS>SUBSTRUCTURE
      1 ****           1
@<TRIPOS>SET
DONOR_HYDROGENS      STATIC     ATOMS    <user>   **** ""
6 37 38 50 52 54 56
ATOM$RED        STATIC     ATOMS    COLORGROUP SYSTEM
6 37 38 50 52 54 56
