#       Name:                AW0
#       Creating user name   gbret
#       Creation time:       Fri Sep  9 04:12:25 2016


#       File generated by GOLD software.
#

@<TRIPOS>MOLECULE
AW0
    71    74     1
SMALL
NO_CHARGES


@<TRIPOS>ATOM
      1 C1           2.4759  -0.3055  -1.2220 C.3            1 <1>                0.0000
      2 C2           1.8525  -0.6514   0.1318 C.3            1 <1>                0.0000
      3 C3           1.8015   0.6037   1.0054 C.3            1 <1>                0.0000
      4 N4           0.4902  -1.1615  -0.0724 N.4            1 <1>                0.0000
      5 H5          -0.0830  -0.9169   0.7211 H              1 <1>                0.0000
      6 C6          -0.0783  -0.5663  -1.2891 C.3            1 <1>                0.0000
      7 C7          -0.2838   0.9346  -1.0746 C.3            1 <1>                0.0000
      8 C8          -1.0239   1.5250  -2.2766 C.3            1 <1>                0.0000
      9 N9          -1.2207   2.9621  -2.0712 N.am           1 <1>                0.0000
     10 C10         -1.8546   3.6960  -3.0071 C.2            1 <1>                0.0000
     11 O11         -2.2632   3.1654  -4.0219 O.2            1 <1>                0.0000
     12 N12         -2.0356   5.0181  -2.8181 N.am           1 <1>                0.0000
     13 C13         -2.7869   5.7599  -3.7368 C.ar           1 <1>                0.0000
     14 C14         -2.4411   7.0752  -4.0175 C.ar           1 <1>                0.0000
     15 C15         -3.1842   7.8044  -4.9249 C.ar           1 <1>                0.0000
     16 C16         -4.2715   7.2261  -5.5538 C.ar           1 <1>                0.0000
     17 C17         -5.0802   8.0247  -6.5434 C.3            1 <1>                0.0000
     18 C18         -4.6182   5.9164  -5.2768 C.ar           1 <1>                0.0000
     19 C19         -3.8762   5.1803  -4.3739 C.ar           1 <1>                0.0000
     20 C20          0.5308  -2.6230  -0.2152 C.3            1 <1>                0.0000
     21 C21          0.9988  -3.2510   1.0992 C.3            1 <1>                0.0000
     22 O22          0.0036  -3.0627   2.1287 O.3            1 <1>                0.0000
     23 C23          0.2882  -4.0716   3.1221 C.3            1 <1>                0.0000
     24 C24          0.6471  -5.3355   2.3095 C.3            1 <1>                0.0000
     25 O25         -0.5045  -6.1637   2.1372 O.3            1 <1>                0.0000
     26 C26          1.1253  -4.7831   0.9480 C.3            1 <1>                0.0000
     27 O27          0.2836  -5.2535  -0.1066 O.3            1 <1>                0.0000
     28 N28          1.4217  -3.6619   3.9550 N.pl3          1 <1>                0.0000
     29 C29          2.3445  -2.7067   3.6481 C.2            1 <1>                0.0000
     30 N30          3.2115  -2.6000   4.6127 N.2            1 <1>                0.0000
     31 C31          2.9011  -3.4774   5.5970 C.ar           1 <1>                0.0000
     32 C32          3.4618  -3.8027   6.8441 C.ar           1 <1>                0.0000
     33 N33          4.5959  -3.1547   7.3012 N.pl3          1 <1>                0.0000
     34 N34          2.8773  -4.7468   7.5742 N.ar           1 <1>                0.0000
     35 C35          1.7945  -5.3702   7.1461 C.ar           1 <1>                0.0000
     36 N36          1.2351  -5.0987   5.9861 N.ar           1 <1>                0.0000
     37 C37          1.7457  -4.1651   5.1896 C.ar           1 <1>                0.0000
     38 H38          3.4870   0.0724  -1.0705 H              1 <1>                0.0000
     39 H39          2.5115  -1.1995  -1.8446 H              1 <1>                0.0000
     40 H40          1.8731   0.4570  -1.7153 H              1 <1>                0.0000
     41 H41          2.4556  -1.4134   0.6255 H              1 <1>                0.0000
     42 H42          1.1716   1.3538   0.5273 H              1 <1>                0.0000
     43 H43          1.3878   0.3504   1.9815 H              1 <1>                0.0000
     44 H44          2.8089   1.0010   1.1297 H              1 <1>                0.0000
     45 H45          0.6046  -0.7238  -2.1240 H              1 <1>                0.0000
     46 H46         -1.0367  -1.0363  -1.5100 H              1 <1>                0.0000
     47 H47         -0.8719   1.0953  -0.1711 H              1 <1>                0.0000
     48 H48          0.6851   1.4226  -0.9691 H              1 <1>                0.0000
     49 H49         -0.4358   1.3643  -3.1801 H              1 <1>                0.0000
     50 H50         -1.9929   1.0370  -2.3821 H              1 <1>                0.0000
     51 H51         -0.8947   3.3854  -1.2616 H              1 <1>                0.0000
     52 H52         -1.6452   5.4556  -2.0454 H              1 <1>                0.0000
     53 H53         -1.5922   7.5275  -3.5264 H              1 <1>                0.0000
     54 H54         -2.9160   8.8275  -5.1434 H              1 <1>                0.0000
     55 H55         -4.6637   7.8943  -7.5423 H              1 <1>                0.0000
     56 H56         -6.1134   7.6777  -6.5325 H              1 <1>                0.0000
     57 H57         -5.0483   9.0797  -6.2714 H              1 <1>                0.0000
     58 H58         -5.4677   5.4674  -5.7698 H              1 <1>                0.0000
     59 H59         -4.1472   4.1574  -4.1582 H              1 <1>                0.0000
     60 H60         -0.4652  -2.9920  -0.4598 H              1 <1>                0.0000
     61 H61          1.2236  -2.8910  -1.0129 H              1 <1>                0.0000
     62 H62          1.9516  -2.8200   1.4067 H              1 <1>                0.0000
     63 H63         -0.5910  -4.2547   3.7398 H              1 <1>                0.0000
     64 H64          1.4460  -5.8911   2.8005 H              1 <1>                0.0000
     65 H65         -0.3360  -6.9718   1.6335 H              1 <1>                0.0000
     66 H66          2.1623  -5.0645   0.7647 H              1 <1>                0.0000
     67 H67          0.2783  -6.2153  -0.2064 H              1 <1>                0.0000
     68 H68          2.3549  -2.1247   2.7383 H              1 <1>                0.0000
     69 H69          5.0132  -2.4672   6.7591 H              1 <1>                0.0000
     70 H70          4.9733  -3.3882   8.1637 H              1 <1>                0.0000
     71 H71          1.3516  -6.1314   7.7713 H              1 <1>                0.0000
@<TRIPOS>BOND
    1    1    2 1     
    2    1   38 1     
    3    1   39 1     
    4    1   40 1     
    5    2    3 1     
    6    2    4 1     
    7    2   41 1     
    8    3   42 1     
    9    3   43 1     
   10    3   44 1     
   11    4    5 1     
   12    4    6 1     
   13    4   20 1     
   14    6    7 1     
   15    6   45 1     
   16    6   46 1     
   17    7    8 1     
   18    7   47 1     
   19    7   48 1     
   20    8    9 1     
   21    8   49 1     
   22    8   50 1     
   23    9   10 am    
   24    9   51 1     
   25   10   11 2     
   26   10   12 am    
   27   12   13 1     
   28   12   52 1     
   29   13   19 ar    
   30   13   14 ar    
   31   14   15 ar    
   32   14   53 1     
   33   15   16 ar    
   34   15   54 1     
   35   16   17 1     
   36   16   18 ar    
   37   17   55 1     
   38   17   56 1     
   39   17   57 1     
   40   18   19 ar    
   41   18   58 1     
   42   19   59 1     
   43   20   21 1     
   44   20   60 1     
   45   20   61 1     
   46   21   26 1     
   47   21   22 1     
   48   21   62 1     
   49   22   23 1     
   50   23   24 1     
   51   23   28 1     
   52   23   63 1     
   53   24   25 1     
   54   24   26 1     
   55   24   64 1     
   56   25   65 1     
   57   26   27 1     
   58   26   66 1     
   59   27   67 1     
   60   28   37 1     
   61   28   29 1     
   62   29   30 2     
   63   29   68 1     
   64   30   31 1     
   65   31   37 ar    
   66   31   32 ar    
   67   32   33 1     
   68   32   34 ar    
   69   33   69 1     
   70   33   70 1     
   71   34   35 ar    
   72   35   36 ar    
   73   35   71 1     
   74   36   37 ar    
@<TRIPOS>SUBSTRUCTURE
      1 ****           1
@<TRIPOS>SET
DONOR_HYDROGENS      STATIC     ATOMS    <user>   **** ""
7 5 51 52 65 67 69 70
ATOM$RED        STATIC     ATOMS    COLORGROUP SYSTEM
7 5 51 52 65 67 69 70
