#       Name:                AX7
#       Creating user name   gbret
#       Creation time:       Fri Sep  9 04:13:31 2016


#       File generated by GOLD software.
#

@<TRIPOS>MOLECULE
AX7
    17    18     1
SMALL
NO_CHARGES


@<TRIPOS>ATOM
      1 N1          -0.1383   3.3797   0.0205 N.pl3          1 <1>                0.0000
      2 C2          -0.1196   2.0008   0.0129 C.2            1 <1>                0.0000
      3 N3          -1.1813   1.2340   0.0132 N.2            1 <1>                0.0000
      4 C4          -0.8017  -0.0710   0.0040 C.ar           1 <1>                0.0000
      5 C5          -1.5083  -1.2762   0.0007 C.ar           1 <1>                0.0000
      6 C6          -0.8232  -2.4705  -0.0089 C.ar           1 <1>                0.0000
      7 C7           0.5637  -2.4863  -0.0152 C.ar           1 <1>                0.0000
      8 C8           1.2761  -1.3048  -0.0115 C.ar           1 <1>                0.0000
      9 C9           0.6026  -0.0928  -0.0023 C.ar           1 <1>                0.0000
     10 N10          1.0085   1.2317  -0.0020 N.pl3          1 <1>                0.0000
     11 H11          1.9237   1.5529  -0.0096 H              1 <1>                0.0000
     12 H12          0.6950   3.8761   0.0152 H              1 <1>                0.0000
     13 H13         -0.9849   3.8532   0.0270 H              1 <1>                0.0000
     14 H14         -2.5883  -1.2711   0.0059 H              1 <1>                0.0000
     15 H15         -1.3699  -3.4019  -0.0111 H              1 <1>                0.0000
     16 H16          1.0894  -3.4297  -0.0226 H              1 <1>                0.0000
     17 H17          2.3559  -1.3239  -0.0157 H              1 <1>                0.0000
@<TRIPOS>BOND
    1    1    2 1     
    2    1   12 1     
    3    1   13 1     
    4    2   10 1     
    5    2    3 2     
    6    3    4 1     
    7    4    9 ar    
    8    4    5 ar    
    9    5    6 ar    
   10    5   14 1     
   11    6    7 ar    
   12    6   15 1     
   13    7    8 ar    
   14    7   16 1     
   15    8    9 ar    
   16    8   17 1     
   17    9   10 1     
   18   10   11 1     
@<TRIPOS>SUBSTRUCTURE
      1 ****           1
@<TRIPOS>SET
DONOR_HYDROGENS      STATIC     ATOMS    <user>   **** ""
3 12 13 11
ATOM$RED        STATIC     ATOMS    COLORGROUP SYSTEM
3 12 13 11
