#       Name:                AZL
#       Creating user name   gbret
#       Creation time:       Fri Sep  9 04:17:10 2016


#       File generated by GOLD software.
#

@<TRIPOS>MOLECULE
AZL
    64    65     1
SMALL
NO_CHARGES


@<TRIPOS>ATOM
      1 C1          -1.8394   3.7488   7.1155 C.3            1 <1>                0.0000
      2 C2          -2.2155   2.4783   6.3504 C.3            1 <1>                0.0000
      3 O3          -1.5014   2.4451   5.0866 O.3            1 <1>                0.0000
      4 C4          -1.7221   1.3843   4.2874 C.2            1 <1>                0.0000
      5 O5          -2.4905   0.5101   4.6365 O.2            1 <1>                0.0000
      6 N6          -1.0908   1.2919   3.1003 N.am           1 <1>                0.0000
      7 C7          -1.3310   0.1376   2.2307 C.3            1 <1>                0.0000
      8 C8          -2.5787   0.3895   1.3817 C.3            1 <1>                0.0000
      9 C9          -3.7901   0.4538   2.2759 C.ar           1 <1>                0.0000
     10 C10         -4.4965  -0.6983   2.5666 C.ar           1 <1>                0.0000
     11 C11         -5.6077  -0.6394   3.3868 C.ar           1 <1>                0.0000
     12 C12         -6.0122   0.5716   3.9165 C.ar           1 <1>                0.0000
     13 C13         -5.3053   1.7236   3.6265 C.ar           1 <1>                0.0000
     14 C14         -4.1916   1.6640   2.8098 C.ar           1 <1>                0.0000
     15 C15         -0.1420  -0.0672   1.3278 C.2            1 <1>                0.0000
     16 O16          0.5574   0.8756   1.0229 O.2            1 <1>                0.0000
     17 N17          0.1442  -1.2980   0.8591 N.am           1 <1>                0.0000
     18 C18         -0.6729  -2.5075   1.0657 C.3            1 <1>                0.0000
     19 C19         -0.3043  -3.4414  -0.1140 C.3            1 <1>                0.0000
     20 C20          1.2136  -3.1607  -0.2709 C.3            1 <1>                0.0000
     21 C21          1.3198  -1.6555   0.0517 C.3            1 <1>                0.0000
     22 C22          1.3343  -0.8571  -1.2263 C.2            1 <1>                0.0000
     23 O23          0.4548  -0.0521  -1.4485 O.2            1 <1>                0.0000
     24 N24          2.3246  -1.0377  -2.1225 N.am           1 <1>                0.0000
     25 N25          2.3378  -0.3140  -3.2810 N.3            1 <1>                0.0000
     26 C26          3.4989  -0.6667  -4.1089 C.3            1 <1>                0.0000
     27 C27          3.4792   0.1623  -5.3946 C.3            1 <1>                0.0000
     28 C28          4.6885  -0.2051  -6.2569 C.3            1 <1>                0.0000
     29 C29          4.6688   0.6240  -7.5427 C.3            1 <1>                0.0000
     30 N30          5.8299   0.2713  -8.3706 N.4            1 <1>                0.0000
     31 H31          6.6783   0.4635  -7.8594 H              1 <1>                0.0000
     32 H32          5.7919  -0.7100  -8.6025 H              1 <1>                0.0000
     33 H33          5.8169   0.8180  -9.2185 H              1 <1>                0.0000
     34 H34         -0.7659   3.7547   7.3045 H              1 <1>                0.0000
     35 H35         -2.1089   4.6230   6.5228 H              1 <1>                0.0000
     36 H36         -2.3755   3.7737   8.0642 H              1 <1>                0.0000
     37 H37         -1.9461   1.6041   6.9430 H              1 <1>                0.0000
     38 H38         -3.2890   2.4723   6.1614 H              1 <1>                0.0000
     39 H39         -0.4774   1.9898   2.8216 H              1 <1>                0.0000
     40 H40         -1.4809  -0.7525   2.8416 H              1 <1>                0.0000
     41 H41         -2.4705   1.3338   0.8481 H              1 <1>                0.0000
     42 H42         -2.6996  -0.4218   0.6639 H              1 <1>                0.0000
     43 H43         -4.1804  -1.6445   2.1527 H              1 <1>                0.0000
     44 H44         -6.1599  -1.5394   3.6133 H              1 <1>                0.0000
     45 H45         -6.8808   0.6178   4.5567 H              1 <1>                0.0000
     46 H46         -5.6216   2.6698   4.0401 H              1 <1>                0.0000
     47 H47         -3.6393   2.5640   2.5832 H              1 <1>                0.0000
     48 H48         -0.4201  -2.9784   2.0157 H              1 <1>                0.0000
     49 H49         -1.7337  -2.2584   1.0353 H              1 <1>                0.0000
     50 H50         -0.4841  -4.4852   0.1431 H              1 <1>                0.0000
     51 H51         -0.8484  -3.1637  -1.0168 H              1 <1>                0.0000
     52 H52          1.7906  -3.7528   0.4394 H              1 <1>                0.0000
     53 H53          1.5385  -3.3577  -1.2925 H              1 <1>                0.0000
     54 H54          2.2280  -1.4619   0.6225 H              1 <1>                0.0000
     55 H55          3.0281  -1.6815  -1.9448 H              1 <1>                0.0000
     56 H56          1.4774  -0.4366  -3.7937 H              1 <1>                0.0000
     57 H57          4.4154  -0.4591  -3.5566 H              1 <1>                0.0000
     58 H58          3.4579  -1.7268  -4.3594 H              1 <1>                0.0000
     59 H59          2.5626  -0.0454  -5.9468 H              1 <1>                0.0000
     60 H60          3.5201   1.2223  -5.1441 H              1 <1>                0.0000
     61 H61          5.6050   0.0026  -5.7047 H              1 <1>                0.0000
     62 H62          4.6475  -1.2651  -6.5074 H              1 <1>                0.0000
     63 H63          3.7522   0.4163  -8.0949 H              1 <1>                0.0000
     64 H64          4.7097   1.6840  -7.2922 H              1 <1>                0.0000
@<TRIPOS>BOND
    1    1    2 1     
    2    1   34 1     
    3    1   35 1     
    4    1   36 1     
    5    2    3 1     
    6    2   37 1     
    7    2   38 1     
    8    3    4 1     
    9    4    5 2     
   10    4    6 am    
   11    6    7 1     
   12    6   39 1     
   13    7    8 1     
   14    7   15 1     
   15    7   40 1     
   16    8    9 1     
   17    8   41 1     
   18    8   42 1     
   19    9   14 ar    
   20    9   10 ar    
   21   10   11 ar    
   22   10   43 1     
   23   11   12 ar    
   24   11   44 1     
   25   12   13 ar    
   26   12   45 1     
   27   13   14 ar    
   28   13   46 1     
   29   14   47 1     
   30   15   16 2     
   31   15   17 am    
   32   17   21 1     
   33   17   18 1     
   34   18   19 1     
   35   18   48 1     
   36   18   49 1     
   37   19   20 1     
   38   19   50 1     
   39   19   51 1     
   40   20   21 1     
   41   20   52 1     
   42   20   53 1     
   43   21   22 1     
   44   21   54 1     
   45   22   23 2     
   46   22   24 am    
   47   24   25 1     
   48   24   55 1     
   49   25   26 1     
   50   25   56 1     
   51   26   27 1     
   52   26   57 1     
   53   26   58 1     
   54   27   28 1     
   55   27   59 1     
   56   27   60 1     
   57   28   29 1     
   58   28   61 1     
   59   28   62 1     
   60   29   30 1     
   61   29   63 1     
   62   29   64 1     
   63   30   31 1     
   64   30   32 1     
   65   30   33 1     
@<TRIPOS>SUBSTRUCTURE
      1 ****           1
@<TRIPOS>SET
DONOR_HYDROGENS      STATIC     ATOMS    <user>   **** ""
6 39 55 56 31 32 33
ATOM$RED        STATIC     ATOMS    COLORGROUP SYSTEM
6 39 55 56 31 32 33
