#       Name:                B0R
#       Creating user name   gbret
#       Creation time:       Fri Sep  9 04:18:46 2016


#       File generated by GOLD software.
#

@<TRIPOS>MOLECULE
B0R
    46    48     1
SMALL
NO_CHARGES


@<TRIPOS>ATOM
      1 C1           6.5829   1.9298   0.7301 C.3            1 <1>                0.0000
      2 C2           6.5129   0.4033   0.8055 C.3            1 <1>                0.0000
      3 C3           5.0498  -0.0366   0.8884 C.3            1 <1>                0.0000
      4 S4           4.9668  -1.8465   0.9777 S.o2           1 <1>                0.0000
      5 O5           5.3810  -2.4260  -0.2519 O.2            1 <1>                0.0000
      6 O6           5.4857  -2.3090   2.2171 O.2            1 <1>                0.0000
      7 N7           3.3473  -2.1822   1.0623 N.pl3          1 <1>                0.0000
      8 C8           2.4941  -1.7810   0.0271 C.ar           1 <1>                0.0000
      9 C9           2.9419  -1.7990  -1.2873 C.ar           1 <1>                0.0000
     10 C10          2.1053  -1.4043  -2.3149 C.ar           1 <1>                0.0000
     11 C11          0.8159  -0.9883  -2.0425 C.ar           1 <1>                0.0000
     12 F12          0.0025  -0.6036  -3.0503 F              1 <1>                0.0000
     13 C13          0.3534  -0.9664  -0.7221 C.ar           1 <1>                0.0000
     14 C14         -1.0224  -0.5236  -0.4260 C.2            1 <1>                0.0000
     15 O15         -1.9306  -1.3322  -0.4069 O.2            1 <1>                0.0000
     16 N16         -1.2729   0.7770  -0.1766 N.am           1 <1>                0.0000
     17 C17         -2.5610   1.1833   0.1990 C.ar           1 <1>                0.0000
     18 C18         -2.7196   2.2315   1.1117 C.ar           1 <1>                0.0000
     19 N19         -3.8957   2.6540   1.5000 N.ar           1 <1>                0.0000
     20 C20         -5.0251   2.0956   1.0353 C.ar           1 <1>                0.0000
     21 N21         -6.3118   2.3080   1.2430 N.2            1 <1>                0.0000
     22 N22         -7.0581   1.4082   0.4748 N.pl3          1 <1>                0.0000
     23 H23         -8.0269   1.3645   0.4539 H              1 <1>                0.0000
     24 C24         -6.2365   0.6148  -0.2291 C.2            1 <1>                0.0000
     25 O25         -6.6113  -0.3714  -1.0802 O.3            1 <1>                0.0000
     26 C26         -8.0141  -0.5885  -1.2441 C.3            1 <1>                0.0000
     27 C27         -4.9311   0.9878   0.0713 C.ar           1 <1>                0.0000
     28 C28         -3.6544   0.5548  -0.3347 C.ar           1 <1>                0.0000
     29 C29          1.1995  -1.3710   0.3148 C.ar           1 <1>                0.0000
     30 F30          0.7619  -1.3537   1.5929 F              1 <1>                0.0000
     31 H31          7.6252   2.2432   0.6711 H              1 <1>                0.0000
     32 H32          6.0490   2.2748  -0.1553 H              1 <1>                0.0000
     33 H33          6.1244   2.3590   1.6210 H              1 <1>                0.0000
     34 H34          6.9714  -0.0259  -0.0854 H              1 <1>                0.0000
     35 H35          7.0467   0.0583   1.6910 H              1 <1>                0.0000
     36 H36          4.5913   0.3925   1.7793 H              1 <1>                0.0000
     37 H37          4.5159   0.3083   0.0029 H              1 <1>                0.0000
     38 H38          2.9898  -2.6567   1.8291 H              1 <1>                0.0000
     39 H39          3.9484  -2.1225  -1.5078 H              1 <1>                0.0000
     40 H40          2.4611  -1.4207  -3.3345 H              1 <1>                0.0000
     41 H41         -0.5618   1.4319  -0.2570 H              1 <1>                0.0000
     42 H42         -1.8377   2.7100   1.5115 H              1 <1>                0.0000
     43 H43         -8.1757  -1.4033  -1.9499 H              1 <1>                0.0000
     44 H44         -8.4565  -0.8479  -0.2823 H              1 <1>                0.0000
     45 H45         -8.4803   0.3200  -1.6253 H              1 <1>                0.0000
     46 H46         -3.5406  -0.2512  -1.0445 H              1 <1>                0.0000
@<TRIPOS>BOND
    1    1    2 1     
    2    1   31 1     
    3    1   32 1     
    4    1   33 1     
    5    2    3 1     
    6    2   34 1     
    7    2   35 1     
    8    3    4 1     
    9    3   36 1     
   10    3   37 1     
   11    4    5 2     
   12    4    6 2     
   13    4    7 1     
   14    7    8 1     
   15    7   38 1     
   16    8   29 ar    
   17    8    9 ar    
   18    9   10 ar    
   19    9   39 1     
   20   10   11 ar    
   21   10   40 1     
   22   11   12 1     
   23   11   13 ar    
   24   13   14 1     
   25   13   29 ar    
   26   14   15 2     
   27   14   16 am    
   28   16   17 1     
   29   16   41 1     
   30   17   28 ar    
   31   17   18 ar    
   32   18   19 ar    
   33   18   42 1     
   34   19   20 ar    
   35   20   27 ar    
   36   20   21 2     
   37   21   22 1     
   38   22   23 1     
   39   22   24 1     
   40   24   25 1     
   41   24   27 2     
   42   25   26 1     
   43   26   43 1     
   44   26   44 1     
   45   26   45 1     
   46   27   28 ar    
   47   28   46 1     
   48   29   30 1     
@<TRIPOS>SUBSTRUCTURE
      1 ****           1
@<TRIPOS>SET
DONOR_HYDROGENS      STATIC     ATOMS    <user>   **** ""
3 38 41 23
ATOM$RED        STATIC     ATOMS    COLORGROUP SYSTEM
3 38 41 23
