#       Name:                B31
#       Creating user name   gbret
#       Creation time:       Fri Sep  9 04:21:15 2016


#       File generated by GOLD software.
#

@<TRIPOS>MOLECULE
B31
    83    85     1
SMALL
NO_CHARGES


@<TRIPOS>ATOM
      1 N1          -3.5404   6.2662  -3.9686 N.4            1 <1>                0.0000
      2 H2          -3.8748   5.6597  -4.7023 H              1 <1>                0.0000
      3 H3          -2.5398   6.1696  -3.8823 H              1 <1>                0.0000
      4 H4          -3.7677   7.2232  -4.1937 H              1 <1>                0.0000
      5 C5          -4.1795   5.8968  -2.6986 C.3            1 <1>                0.0000
      6 C6          -3.8349   4.4457  -2.3573 C.3            1 <1>                0.0000
      7 C7          -4.5005   4.0610  -1.0345 C.3            1 <1>                0.0000
      8 O8          -5.9207   4.0855  -1.1911 O.3            1 <1>                0.0000
      9 C9          -4.0628   2.6750  -0.6364 C.2            1 <1>                0.0000
     10 O10         -4.8729   1.7737  -0.5883 O.2            1 <1>                0.0000
     11 N11         -2.7712   2.4371  -0.3338 N.am           1 <1>                0.0000
     12 C12         -2.3457   1.0897   0.0533 C.3            1 <1>                0.0000
     13 C13         -2.0504   0.2676  -1.2028 C.3            1 <1>                0.0000
     14 C14         -1.6061  -1.1395  -0.7986 C.3            1 <1>                0.0000
     15 N15         -1.3225  -1.9288  -2.0047 N.4            1 <1>                0.0000
     16 H16         -0.6042  -1.4707  -2.5453 H              1 <1>                0.0000
     17 H17         -1.0070  -2.8493  -1.7377 H              1 <1>                0.0000
     18 H18         -2.1615  -2.0086  -2.5594 H              1 <1>                0.0000
     19 C19         -0.3430  -1.0486   0.0600 C.3            1 <1>                0.0000
     20 O20          0.6975  -0.4172  -0.6888 O.3            1 <1>                0.0000
     21 C21          1.9367  -1.1288  -0.6762 C.3            1 <1>                0.0000
     22 O22          1.7884  -2.3565  -1.3925 O.3            1 <1>                0.0000
     23 C23          2.9683  -3.1623  -1.4196 C.3            1 <1>                0.0000
     24 C24          2.6847  -4.4565  -2.1848 C.3            1 <1>                0.0000
     25 N25          1.6925  -5.2524  -1.4500 N.4            1 <1>                0.0000
     26 H26          2.0150  -5.4037  -0.5060 H              1 <1>                0.0000
     27 H27          0.8131  -4.7582  -1.4298 H              1 <1>                0.0000
     28 H28          1.5678  -6.1420  -1.9095 H              1 <1>                0.0000
     29 C29          4.0938  -2.3933  -2.1164 C.3            1 <1>                0.0000
     30 O30          3.7225  -2.1258  -3.4701 O.3            1 <1>                0.0000
     31 C31          4.3307  -1.0714  -1.3798 C.3            1 <1>                0.0000
     32 O32          5.3292  -0.3139  -2.0662 O.3            1 <1>                0.0000
     33 C33          3.0208  -0.2782  -1.3432 C.3            1 <1>                0.0000
     34 N34          2.6098   0.0544  -2.7137 N.4            1 <1>                0.0000
     35 H35          2.3360  -0.7882  -3.1966 H              1 <1>                0.0000
     36 H36          1.8301   0.6942  -2.6852 H              1 <1>                0.0000
     37 H37          3.3811   0.4857  -3.2008 H              1 <1>                0.0000
     38 C38         -0.6383  -0.2265   1.3161 C.3            1 <1>                0.0000
     39 O39          0.5414  -0.1415   2.1181 O.3            1 <1>                0.0000
     40 C40          0.2848  -0.0306   3.5195 C.3            1 <1>                0.0000
     41 O41         -0.1376  -1.3035   4.0555 O.3            1 <1>                0.0000
     42 C42          0.1112  -1.2197   5.4757 C.3            1 <1>                0.0000
     43 C43          0.1988  -2.6206   6.0846 C.3            1 <1>                0.0000
     44 O44         -1.0781  -3.2568   6.0014 O.3            1 <1>                0.0000
     45 C45          1.4701  -0.4950   5.5962 C.3            1 <1>                0.0000
     46 O46          2.5349  -1.4421   5.7027 O.3            1 <1>                0.0000
     47 C47          1.5869   0.3052   4.2797 C.3            1 <1>                0.0000
     48 O48          2.7274  -0.1232   3.5329 O.3            1 <1>                0.0000
     49 C49         -1.0827   1.1807   0.9119 C.3            1 <1>                0.0000
     50 O50         -0.0421   1.8121   0.1632 O.3            1 <1>                0.0000
     51 H51         -3.8182   6.5521  -1.9060 H              1 <1>                0.0000
     52 H52         -5.2605   6.0013  -2.7919 H              1 <1>                0.0000
     53 H53         -4.1961   3.7905  -3.1499 H              1 <1>                0.0000
     54 H54         -2.7539   4.3413  -2.2640 H              1 <1>                0.0000
     55 H55         -4.2080   4.7707  -0.2607 H              1 <1>                0.0000
     56 H56         -6.2526   3.4768  -1.8651 H              1 <1>                0.0000
     57 H57         -2.1233   3.1580  -0.3722 H              1 <1>                0.0000
     58 H58         -3.1394   0.6081   0.6244 H              1 <1>                0.0000
     59 H59         -2.9502   0.2028  -1.8146 H              1 <1>                0.0000
     60 H60         -1.2567   0.7492  -1.7740 H              1 <1>                0.0000
     61 H61         -2.3998  -1.6211  -0.2275 H              1 <1>                0.0000
     62 H62         -0.0264  -2.0510   0.3480 H              1 <1>                0.0000
     63 H63          2.2235  -1.3411   0.3537 H              1 <1>                0.0000
     64 H64          3.2686  -3.4015  -0.3994 H              1 <1>                0.0000
     65 H65          2.2967  -4.2159  -3.1745 H              1 <1>                0.0000
     66 H66          3.6071  -5.0286  -2.2853 H              1 <1>                0.0000
     67 H67          5.0064  -2.9891  -2.1000 H              1 <1>                0.0000
     68 H68          4.3908  -1.6400  -3.9726 H              1 <1>                0.0000
     69 H69          4.6634  -1.2756  -0.3621 H              1 <1>                0.0000
     70 H70          6.1846  -0.7599  -2.1328 H              1 <1>                0.0000
     71 H71          3.1663   0.6392  -0.7727 H              1 <1>                0.0000
     72 H72         -1.4320  -0.7081   1.8873 H              1 <1>                0.0000
     73 H73         -0.4714   0.7317   3.7069 H              1 <1>                0.0000
     74 H74         -0.6733  -0.6424   5.9650 H              1 <1>                0.0000
     75 H75          0.9345  -3.2095   5.5370 H              1 <1>                0.0000
     76 H76          0.4993  -2.5444   7.1296 H              1 <1>                0.0000
     77 H77         -1.0968  -4.1508   6.3696 H              1 <1>                0.0000
     78 H78          1.4701   0.1763   6.4550 H              1 <1>                0.0000
     79 H79          3.4114  -1.0412   5.7810 H              1 <1>                0.0000
     80 H80          1.6438   1.3740   4.4862 H              1 <1>                0.0000
     81 H81          2.8489   0.3465   2.6964 H              1 <1>                0.0000
     82 H82         -1.2931   1.7663   1.8068 H              1 <1>                0.0000
     83 H83         -0.2553   2.7096  -0.1268 H              1 <1>                0.0000
@<TRIPOS>BOND
    1    1    2 1     
    2    1    3 1     
    3    1    4 1     
    4    1    5 1     
    5    5    6 1     
    6    5   51 1     
    7    5   52 1     
    8    6    7 1     
    9    6   53 1     
   10    6   54 1     
   11    7    8 1     
   12    7    9 1     
   13    7   55 1     
   14    8   56 1     
   15    9   10 2     
   16    9   11 am    
   17   11   12 1     
   18   11   57 1     
   19   12   49 1     
   20   12   13 1     
   21   12   58 1     
   22   13   14 1     
   23   13   59 1     
   24   13   60 1     
   25   14   15 1     
   26   14   19 1     
   27   14   61 1     
   28   15   16 1     
   29   15   17 1     
   30   15   18 1     
   31   19   20 1     
   32   19   38 1     
   33   19   62 1     
   34   20   21 1     
   35   21   33 1     
   36   21   22 1     
   37   21   63 1     
   38   22   23 1     
   39   23   24 1     
   40   23   29 1     
   41   23   64 1     
   42   24   25 1     
   43   24   65 1     
   44   24   66 1     
   45   25   26 1     
   46   25   27 1     
   47   25   28 1     
   48   29   30 1     
   49   29   31 1     
   50   29   67 1     
   51   30   68 1     
   52   31   32 1     
   53   31   33 1     
   54   31   69 1     
   55   32   70 1     
   56   33   34 1     
   57   33   71 1     
   58   34   35 1     
   59   34   36 1     
   60   34   37 1     
   61   38   39 1     
   62   38   49 1     
   63   38   72 1     
   64   39   40 1     
   65   40   47 1     
   66   40   41 1     
   67   40   73 1     
   68   41   42 1     
   69   42   43 1     
   70   42   45 1     
   71   42   74 1     
   72   43   44 1     
   73   43   75 1     
   74   43   76 1     
   75   44   77 1     
   76   45   46 1     
   77   45   47 1     
   78   45   78 1     
   79   46   79 1     
   80   47   48 1     
   81   47   80 1     
   82   48   81 1     
   83   49   50 1     
   84   49   82 1     
   85   50   83 1     
@<TRIPOS>SUBSTRUCTURE
      1 ****           1
@<TRIPOS>SET
DONOR_HYDROGENS      STATIC     ATOMS    <user>   **** ""
20 2 3 4 56 57 16 17 18 26 27 28 68 70 35 36 37 77 79 \
 81 83
ATOM$RED        STATIC     ATOMS    COLORGROUP SYSTEM
20 2 3 4 56 57 16 17 18 26 27 28 68 70 35 36 37 77 79 \
 81 83
