#       Name:                B3D
#       Creating user name   gbret
#       Creation time:       Fri Sep  9 04:22:09 2016


#       File generated by GOLD software.
#

@<TRIPOS>MOLECULE
B3D
    18    17     1
SMALL
NO_CHARGES


@<TRIPOS>ATOM
      1 N1           0.7772  -0.5351  -0.9893 N.4            1 <1>                0.0000
      2 H2           0.7909  -1.5440  -0.9949 H              1 <1>                0.0000
      3 H3           1.7238  -0.1858  -0.9965 H              1 <1>                0.0000
      4 H4           0.2892  -0.2008  -1.8068 H              1 <1>                0.0000
      5 C5           0.0896  -0.0613   0.2193 C.3            1 <1>                0.0000
      6 C6           0.0689   1.4685   0.2277 C.3            1 <1>                0.0000
      7 C7           1.4784   1.9894   0.3409 C.2            1 <1>                0.0000
      8 O8           2.4130   1.2093   0.4085 O.co2          1 <1>                0.0000
      9 O9           1.6843   3.1909   0.3648 O.co2          1 <1>                0.0000
     10 C10         -1.3458  -0.5909   0.2301 C.3            1 <1>                0.0000
     11 C11         -1.3260  -2.0933   0.3457 C.2            1 <1>                0.0000
     12 O12         -0.2625  -2.6856   0.4132 O.co2          1 <1>                0.0000
     13 O13         -2.3736  -2.7166   0.3718 O.co2          1 <1>                0.0000
     14 H14          0.6168  -0.4224   1.1023 H              1 <1>                0.0000
     15 H15         -0.3792   1.8309  -0.6975 H              1 <1>                0.0000
     16 H16         -0.5174   1.8193   1.0770 H              1 <1>                0.0000
     17 H17         -1.8826  -0.1682   1.0794 H              1 <1>                0.0000
     18 H18         -1.8458  -0.3042  -0.6950 H              1 <1>                0.0000
@<TRIPOS>BOND
    1    1    2 1     
    2    1    3 1     
    3    1    4 1     
    4    1    5 1     
    5    5    6 1     
    6    5   10 1     
    7    5   14 1     
    8    6    7 1     
    9    6   15 1     
   10    6   16 1     
   11    7    8 ar    
   12    7    9 ar    
   13   10   11 1     
   14   10   17 1     
   15   10   18 1     
   16   11   12 ar    
   17   11   13 ar    
@<TRIPOS>SUBSTRUCTURE
      1 ****           1
@<TRIPOS>SET
DONOR_HYDROGENS      STATIC     ATOMS    <user>   **** ""
3 2 3 4
ATOM$RED        STATIC     ATOMS    COLORGROUP SYSTEM
3 2 3 4
