#       Name:                B3P
#       Creating user name   gbret
#       Creation time:       Fri Sep  9 04:22:40 2016


#       File generated by GOLD software.
#

@<TRIPOS>MOLECULE
B3P
    47    46     1
SMALL
NO_CHARGES


@<TRIPOS>ATOM
      1 O1           3.4858   4.9626  -0.0066 O.3            1 <1>                0.0000
      2 C2           3.5052   3.5337  -0.0145 C.3            1 <1>                0.0000
      3 C3           2.0698   3.0042  -0.0036 C.3            1 <1>                0.0000
      4 C4           1.3537   3.4976   1.2552 C.3            1 <1>                0.0000
      5 O5           2.0448   3.0242   2.4129 O.3            1 <1>                0.0000
      6 C6           1.3298   3.5110  -1.2431 C.3            1 <1>                0.0000
      7 O7           1.9288   2.9557  -2.4157 O.3            1 <1>                0.0000
      8 N8           2.0897   1.5353  -0.0117 N.4            1 <1>                0.0000
      9 H9           2.5620   1.2099  -0.8419 H              1 <1>                0.0000
     10 H10          2.5777   1.2011   0.8057 H              1 <1>                0.0000
     11 C11          0.7116   1.0268  -0.0013 C.3            1 <1>                0.0000
     12 C12          0.7323  -0.5030  -0.0097 C.3            1 <1>                0.0000
     13 C13         -0.7031  -1.0326   0.0012 C.3            1 <1>                0.0000
     14 N14         -0.6832  -2.5014  -0.0069 N.4            1 <1>                0.0000
     15 H15         -0.2109  -2.8268  -0.8370 H              1 <1>                0.0000
     16 H16         -0.1951  -2.8357   0.8105 H              1 <1>                0.0000
     17 C17         -2.0613  -3.0099   0.0035 C.3            1 <1>                0.0000
     18 C18         -2.0406  -4.5397  -0.0049 C.3            1 <1>                0.0000
     19 O19         -3.3812  -5.0343   0.0053 O.3            1 <1>                0.0000
     20 C20         -2.7774  -2.5165   1.2623 C.3            1 <1>                0.0000
     21 O21         -2.0233  -2.8907   2.4170 O.3            1 <1>                0.0000
     22 C22         -2.8013  -2.5031  -1.2360 C.3            1 <1>                0.0000
     23 O23         -2.1325  -2.9639  -2.4117 O.3            1 <1>                0.0000
     24 H24          4.3637   5.3679  -0.0128 H              1 <1>                0.0000
     25 H25          4.0154   3.1822  -0.9113 H              1 <1>                0.0000
     26 H26          4.0324   3.1727   0.8686 H              1 <1>                0.0000
     27 H27          1.3389   4.5875   1.2612 H              1 <1>                0.0000
     28 H28          0.3311   3.1203   1.2629 H              1 <1>                0.0000
     29 H29          1.6454   3.2995   3.2494 H              1 <1>                0.0000
     30 H30          0.2840   3.2081  -1.1911 H              1 <1>                0.0000
     31 H31          1.3915   4.5985  -1.2838 H              1 <1>                0.0000
     32 H32          1.5095   3.2346  -3.2413 H              1 <1>                0.0000
     33 H33          0.2014   1.3784   0.8955 H              1 <1>                0.0000
     34 H34          0.1844   1.3879  -0.8843 H              1 <1>                0.0000
     35 H35          1.2425  -0.8545  -0.9065 H              1 <1>                0.0000
     36 H36          1.2595  -0.8641   0.8734 H              1 <1>                0.0000
     37 H37         -1.2133  -0.6811   0.8980 H              1 <1>                0.0000
     38 H38         -1.2303  -0.6715  -0.8819 H              1 <1>                0.0000
     39 H39         -1.5304  -4.8912  -0.9017 H              1 <1>                0.0000
     40 H40         -1.5134  -4.9008   0.8782 H              1 <1>                0.0000
     41 H41         -3.4445  -5.9993   0.0007 H              1 <1>                0.0000
     42 H42         -2.8708  -1.4311   1.2254 H              1 <1>                0.0000
     43 H43         -3.7695  -2.9649   1.3153 H              1 <1>                0.0000
     44 H44         -2.4191  -2.6097   3.2534 H              1 <1>                0.0000
     45 H45         -3.8239  -2.8803  -1.2282 H              1 <1>                0.0000
     46 H46         -2.8161  -1.4132  -1.2300 H              1 <1>                0.0000
     47 H47         -2.5477  -2.6796  -3.2374 H              1 <1>                0.0000
@<TRIPOS>BOND
    1    1    2 1     
    2    1   24 1     
    3    2    3 1     
    4    2   25 1     
    5    2   26 1     
    6    3    4 1     
    7    3    6 1     
    8    3    8 1     
    9    4    5 1     
   10    4   27 1     
   11    4   28 1     
   12    5   29 1     
   13    6    7 1     
   14    6   30 1     
   15    6   31 1     
   16    7   32 1     
   17    8    9 1     
   18    8   10 1     
   19    8   11 1     
   20   11   12 1     
   21   11   33 1     
   22   11   34 1     
   23   12   13 1     
   24   12   35 1     
   25   12   36 1     
   26   13   14 1     
   27   13   37 1     
   28   13   38 1     
   29   14   15 1     
   30   14   16 1     
   31   14   17 1     
   32   17   18 1     
   33   17   20 1     
   34   17   22 1     
   35   18   19 1     
   36   18   39 1     
   37   18   40 1     
   38   19   41 1     
   39   20   21 1     
   40   20   42 1     
   41   20   43 1     
   42   21   44 1     
   43   22   23 1     
   44   22   45 1     
   45   22   46 1     
   46   23   47 1     
@<TRIPOS>SUBSTRUCTURE
      1 ****           1
@<TRIPOS>SET
DONOR_HYDROGENS      STATIC     ATOMS    <user>   **** ""
10 24 29 32 9 10 15 16 41 44 47
ATOM$RED        STATIC     ATOMS    COLORGROUP SYSTEM
10 24 29 32 9 10 15 16 41 44 47
