#       Name:                B3W
#       Creating user name   gbret
#       Creation time:       Fri Sep  9 04:23:07 2016


#       File generated by GOLD software.
#

@<TRIPOS>MOLECULE
B3W
    38    38     1
SMALL
NO_CHARGES


@<TRIPOS>ATOM
      1 C1           1.1444   3.0742  -2.3670 C.3            1 <1>                0.0000
      2 C2           1.0858   1.5568  -2.1796 C.3            1 <1>                0.0000
      3 N3          -0.3119   1.1382  -2.0089 N.4            1 <1>                0.0000
      4 H4          -0.7304   1.6624  -1.2552 H              1 <1>                0.0000
      5 C5          -1.0538   1.3902  -3.2516 C.3            1 <1>                0.0000
      6 C6          -2.5375   1.0900  -3.0295 C.3            1 <1>                0.0000
      7 C7          -0.3585  -0.2957  -1.6930 C.3            1 <1>                0.0000
      8 C8           0.3059  -0.5410  -0.3368 C.3            1 <1>                0.0000
      9 N9           0.2595  -1.9710  -0.0218 N.pl3          1 <1>                0.0000
     10 S10          1.2139  -2.5845   1.1844 S.o2           1 <1>                0.0000
     11 O11          0.9165  -3.9717   1.2651 O.2            1 <1>                0.0000
     12 O12          2.5232  -2.0824   0.9547 O.2            1 <1>                0.0000
     13 C13          0.6653  -1.8692   2.6984 C.ar           1 <1>                0.0000
     14 C14          1.2159  -0.6808   3.1405 C.ar           1 <1>                0.0000
     15 C15          0.7863  -0.1194   4.3282 C.ar           1 <1>                0.0000
     16 C16         -0.1952  -0.7469   5.0745 C.ar           1 <1>                0.0000
     17 Cl17        -0.7357  -0.0422   6.5661 Cl             1 <1>                0.0000
     18 C18         -0.7462  -1.9361   4.6312 C.ar           1 <1>                0.0000
     19 C19         -0.3195  -2.4938   3.4408 C.ar           1 <1>                0.0000
     20 H20          2.1849   3.3985  -2.3818 H              1 <1>                0.0000
     21 H21          0.6668   3.3426  -3.3093 H              1 <1>                0.0000
     22 H22          0.6233   3.5624  -1.5435 H              1 <1>                0.0000
     23 H23          1.5076   1.0658  -3.0566 H              1 <1>                0.0000
     24 H24          1.6592   1.2775  -1.2957 H              1 <1>                0.0000
     25 H25         -0.9337   2.4341  -3.5411 H              1 <1>                0.0000
     26 H26         -0.6673   0.7471  -4.0422 H              1 <1>                0.0000
     27 H27         -2.6693   0.0232  -2.8487 H              1 <1>                0.0000
     28 H28         -2.8969   1.6517  -2.1673 H              1 <1>                0.0000
     29 H29         -3.1035   1.3811  -3.9144 H              1 <1>                0.0000
     30 H30         -1.3967  -0.6256  -1.6539 H              1 <1>                0.0000
     31 H31          0.1716  -0.8550  -2.4638 H              1 <1>                0.0000
     32 H32          1.3441  -0.2111  -0.3759 H              1 <1>                0.0000
     33 H33         -0.2243   0.0183   0.4340 H              1 <1>                0.0000
     34 H34         -0.3304  -2.5584  -0.5197 H              1 <1>                0.0000
     35 H35          1.9822  -0.1910   2.5579 H              1 <1>                0.0000
     36 H36          1.2171   0.8087   4.6739 H              1 <1>                0.0000
     37 H37         -1.5122  -2.4266   5.2135 H              1 <1>                0.0000
     38 H38         -0.7498  -3.4218   3.0945 H              1 <1>                0.0000
@<TRIPOS>BOND
    1    1    2 1     
    2    1   20 1     
    3    1   21 1     
    4    1   22 1     
    5    2    3 1     
    6    2   23 1     
    7    2   24 1     
    8    3    4 1     
    9    3    5 1     
   10    3    7 1     
   11    5    6 1     
   12    5   25 1     
   13    5   26 1     
   14    6   27 1     
   15    6   28 1     
   16    6   29 1     
   17    7    8 1     
   18    7   30 1     
   19    7   31 1     
   20    8    9 1     
   21    8   32 1     
   22    8   33 1     
   23    9   10 1     
   24    9   34 1     
   25   10   11 2     
   26   10   12 2     
   27   10   13 1     
   28   13   19 ar    
   29   13   14 ar    
   30   14   15 ar    
   31   14   35 1     
   32   15   16 ar    
   33   15   36 1     
   34   16   17 1     
   35   16   18 ar    
   36   18   19 ar    
   37   18   37 1     
   38   19   38 1     
@<TRIPOS>SUBSTRUCTURE
      1 ****           1
@<TRIPOS>SET
DONOR_HYDROGENS      STATIC     ATOMS    <user>   **** ""
2 4 34
ATOM$RED        STATIC     ATOMS    COLORGROUP SYSTEM
2 4 34
