#       Name:                BAB
#       Creating user name   gbret
#       Creation time:       Fri Sep  9 04:30:05 2016


#       File generated by GOLD software.
#

@<TRIPOS>MOLECULE
BAB
    43    46     1
SMALL
NO_CHARGES


@<TRIPOS>ATOM
      1 N1           4.7231   5.6673  -1.3110 N.pl3          1 <1>                0.0000
      2 C2           4.7412   4.3350  -1.3183 C.2            1 <1>                0.0000
      3 N3           5.9040   3.6846  -1.3329 N.pl3          1 <1>                0.0000
      4 H4           6.7373   4.1810  -1.3382 H              1 <1>                0.0000
      5 H5           5.9171   2.7147  -1.3382 H              1 <1>                0.0000
      6 C6           3.4718   3.5789  -1.3102 C.ar           1 <1>                0.0000
      7 C7           2.3374   4.1238  -0.6943 C.ar           1 <1>                0.0000
      8 C8           1.1610   3.4373  -0.6798 C.ar           1 <1>                0.0000
      9 C9           1.0771   2.1766  -1.2825 C.ar           1 <1>                0.0000
     10 N10          0.0727   1.2772  -1.4252 N.2            1 <1>                0.0000
     11 C11          0.5055   0.2354  -2.0754 C.2            1 <1>                0.0000
     12 C12         -0.3271  -0.9716  -2.4235 C.3            1 <1>                0.0000
     13 C13         -0.9435  -1.5354  -1.1692 C.2            1 <1>                0.0000
     14 N14         -0.2802  -1.8840  -0.1042 N.2            1 <1>                0.0000
     15 C15         -1.1383  -2.3496   0.8366 C.ar           1 <1>                0.0000
     16 C16         -0.9665  -2.8445   2.1348 C.ar           1 <1>                0.0000
     17 C17         -2.0464  -3.2499   2.8592 C.ar           1 <1>                0.0000
     18 C18         -3.3359  -3.1765   2.3161 C.ar           1 <1>                0.0000
     19 C19         -3.5245  -2.6866   1.0258 C.ar           1 <1>                0.0000
     20 C20         -2.4304  -2.2728   0.2852 C.ar           1 <1>                0.0000
     21 N21         -2.2725  -1.7482  -0.9833 N.pl3          1 <1>                0.0000
     22 H22         -2.9789  -1.5675  -1.6230 H              1 <1>                0.0000
     23 C23         -4.4980  -3.6202   3.1134 C.2            1 <1>                0.0000
     24 N24         -4.3191  -4.0895   4.3476 N.pl3          1 <1>                0.0000
     25 N25         -5.7249  -3.5511   2.5983 N.pl3          1 <1>                0.0000
     26 H26         -5.8552  -3.2095   1.6999 H              1 <1>                0.0000
     27 H27         -6.4878  -3.8424   3.1219 H              1 <1>                0.0000
     28 N28          1.8166   0.3943  -2.3945 N.pl3          1 <1>                0.0000
     29 H29          2.3714  -0.2373  -2.8783 H              1 <1>                0.0000
     30 C30          2.2124   1.6235  -1.9027 C.ar           1 <1>                0.0000
     31 C31          3.4039   2.3283  -1.9199 C.ar           1 <1>                0.0000
     32 H32          5.5565   6.1637  -1.3162 H              1 <1>                0.0000
     33 H33          3.8766   6.1409  -1.3044 H              1 <1>                0.0000
     34 H34          2.3964   5.0958  -0.2271 H              1 <1>                0.0000
     35 H35          0.2922   3.8660  -0.2024 H              1 <1>                0.0000
     36 H36         -1.1161  -0.6810  -3.1171 H              1 <1>                0.0000
     37 H37          0.3056  -1.7275  -2.8888 H              1 <1>                0.0000
     38 H38          0.0235  -2.9054   2.5623 H              1 <1>                0.0000
     39 H39         -1.9076  -3.6311   3.8601 H              1 <1>                0.0000
     40 H40         -4.5178  -2.6302   0.6058 H              1 <1>                0.0000
     41 H41         -3.4260  -4.1399   4.7226 H              1 <1>                0.0000
     42 H42         -5.0820  -4.3808   4.8710 H              1 <1>                0.0000
     43 H43          4.2761   1.9096  -2.3998 H              1 <1>                0.0000
@<TRIPOS>BOND
    1    1    2 2     
    2    1   32 1     
    3    1   33 1     
    4    2    3 1     
    5    2    6 1     
    6    3    4 1     
    7    3    5 1     
    8    6   31 ar    
    9    6    7 ar    
   10    7    8 ar    
   11    7   34 1     
   12    8    9 ar    
   13    8   35 1     
   14    9   30 ar    
   15    9   10 1     
   16   10   11 2     
   17   11   12 1     
   18   11   28 1     
   19   12   13 1     
   20   12   36 1     
   21   12   37 1     
   22   13   21 1     
   23   13   14 2     
   24   14   15 1     
   25   15   20 ar    
   26   15   16 ar    
   27   16   17 ar    
   28   16   38 1     
   29   17   18 ar    
   30   17   39 1     
   31   18   19 ar    
   32   18   23 1     
   33   19   20 ar    
   34   19   40 1     
   35   20   21 1     
   36   21   22 1     
   37   23   24 2     
   38   23   25 1     
   39   24   41 1     
   40   24   42 1     
   41   25   26 1     
   42   25   27 1     
   43   28   29 1     
   44   28   30 1     
   45   30   31 ar    
   46   31   43 1     
@<TRIPOS>SUBSTRUCTURE
      1 ****           1
@<TRIPOS>SET
DONOR_HYDROGENS      STATIC     ATOMS    <user>   **** ""
10 32 33 4 5 22 41 42 26 27 29
ATOM$RED        STATIC     ATOMS    COLORGROUP SYSTEM
10 32 33 4 5 22 41 42 26 27 29
