#       Name:                BBF
#       Creating user name   gbret
#       Creation time:       Fri Sep  9 04:32:32 2016


#       File generated by GOLD software.
#

@<TRIPOS>MOLECULE
BBF
    12    12     1
SMALL
NO_CHARGES


@<TRIPOS>ATOM
      1 F1           0.0377  -2.7817  -0.0169 F              1 <1>                0.0000
      2 C2           0.0194  -1.4308  -0.0095 C.ar           1 <1>                0.0000
      3 C3          -1.1898  -0.7542   0.0115 C.ar           1 <1>                0.0000
      4 F4          -2.3506  -1.4452   0.0245 F              1 <1>                0.0000
      5 C5          -1.2080   0.6315   0.0196 C.ar           1 <1>                0.0000
      6 F6          -2.3868   1.2914   0.0406 F              1 <1>                0.0000
      7 C7          -0.0182   1.3400   0.0067 C.ar           1 <1>                0.0000
      8 Br8         -0.0439   3.2308   0.0184 Br             1 <1>                0.0000
      9 C9           1.1903   0.6643  -0.0142 C.ar           1 <1>                0.0000
     10 F10          2.3508   1.3560  -0.0267 F              1 <1>                0.0000
     11 C11          1.2097  -0.7215  -0.0170 C.ar           1 <1>                0.0000
     12 F12          2.3889  -1.3806  -0.0374 F              1 <1>                0.0000
@<TRIPOS>BOND
    1    1    2 1     
    2    2   11 ar    
    3    2    3 ar    
    4    3    4 1     
    5    3    5 ar    
    6    5    6 1     
    7    5    7 ar    
    8    7    8 1     
    9    7    9 ar    
   10    9   10 1     
   11    9   11 ar    
   12   11   12 1     
@<TRIPOS>SUBSTRUCTURE
      1 ****           1
