#       Name:                BCZ
#       Creating user name   gbret
#       Creation time:       Fri Sep  9 04:35:29 2016


#       File generated by GOLD software.
#

@<TRIPOS>MOLECULE
BCZ
    51    51     1
SMALL
NO_CHARGES


@<TRIPOS>ATOM
      1 C1           2.5786  -2.1987  -0.9582 C.3            1 <1>                0.0000
      2 C2           1.5180  -1.6967  -1.9401 C.3            1 <1>                0.0000
      3 C3           1.3593  -0.1825  -1.7893 C.3            1 <1>                0.0000
      4 C4           0.4648   0.3507  -2.9102 C.3            1 <1>                0.0000
      5 C5           0.4121   1.8781  -2.8378 C.3            1 <1>                0.0000
      6 C6           0.7208   0.1309  -0.4346 C.3            1 <1>                0.0000
      7 N7           0.7780   1.5743  -0.1901 N.am           1 <1>                0.0000
      8 C8           1.9537   2.1608   0.1101 C.2            1 <1>                0.0000
      9 C9           1.9957   3.6234   0.4707 C.3            1 <1>                0.0000
     10 O10          2.9779   1.5116   0.0900 O.2            1 <1>                0.0000
     11 C11         -0.7387  -0.3280  -0.4403 C.3            1 <1>                0.0000
     12 C12         -0.8223  -1.8638  -0.3220 C.3            1 <1>                0.0000
     13 O13          0.3698  -2.3741   0.2787 O.3            1 <1>                0.0000
     14 C14         -2.0361  -2.1704   0.5726 C.3            1 <1>                0.0000
     15 C15         -2.6479  -0.8101   0.9666 C.3            1 <1>                0.0000
     16 C16         -1.4749   0.1907   0.8199 C.3            1 <1>                0.0000
     17 N17         -0.5978   0.1380   1.9921 N.pl3          1 <1>                0.0000
     18 C18         -0.8804   0.8997   3.0926 C.cat          1 <1>                0.0000
     19 N19         -1.9531   1.6893   3.0984 N.pl3          1 <1>                0.0000
     20 N20         -0.0830   0.8518   4.1584 N.pl3          1 <1>                0.0000
     21 H21         -0.2834   1.3920   4.9387 H              1 <1>                0.0000
     22 H22          0.6982   0.2769   4.1541 H              1 <1>                0.0000
     23 C23         -3.0458  -2.9890  -0.1901 C.2            1 <1>                0.0000
     24 O24         -3.6348  -3.9012   0.3643 O.co2          1 <1>                0.0000
     25 O25         -3.2736  -2.7390  -1.3615 O.co2          1 <1>                0.0000
     26 H26          2.5722  -3.2885  -0.9422 H              1 <1>                0.0000
     27 H27          3.5608  -1.8457  -1.2725 H              1 <1>                0.0000
     28 H28          2.3584  -1.8193   0.0397 H              1 <1>                0.0000
     29 H29          1.8269  -1.9300  -2.9591 H              1 <1>                0.0000
     30 H30          0.5667  -2.1847  -1.7281 H              1 <1>                0.0000
     31 H31          2.3382   0.2931  -1.8483 H              1 <1>                0.0000
     32 H32          0.8709   0.0464  -3.8749 H              1 <1>                0.0000
     33 H33         -0.5411  -0.0534  -2.7957 H              1 <1>                0.0000
     34 H34         -0.1201   2.1809  -1.9361 H              1 <1>                0.0000
     35 H35          1.4267   2.2757  -2.8118 H              1 <1>                0.0000
     36 H36         -0.1077   2.2656  -3.7140 H              1 <1>                0.0000
     37 H37          1.2633  -0.3927   0.3526 H              1 <1>                0.0000
     38 H38         -0.0303   2.1077  -0.2442 H              1 <1>                0.0000
     39 H39          1.3814   3.7976   1.3541 H              1 <1>                0.0000
     40 H40          3.0244   3.9167   0.6800 H              1 <1>                0.0000
     41 H41          1.6116   4.2139  -0.3611 H              1 <1>                0.0000
     42 H42         -1.2419   0.0150  -1.3443 H              1 <1>                0.0000
     43 H43         -0.9626  -2.3071  -1.3078 H              1 <1>                0.0000
     44 H44          0.3782  -3.3356   0.3807 H              1 <1>                0.0000
     45 H45         -1.7160  -2.7084   1.4648 H              1 <1>                0.0000
     46 H46         -3.4608  -0.5470   0.2899 H              1 <1>                0.0000
     47 H47         -3.0014  -0.8351   1.9974 H              1 <1>                0.0000
     48 H48         -1.8480   1.2024   0.6604 H              1 <1>                0.0000
     49 H49          0.1834  -0.4370   1.9879 H              1 <1>                0.0000
     50 H50         -2.5339   1.7241   2.3223 H              1 <1>                0.0000
     51 H51         -2.1536   2.2294   3.8788 H              1 <1>                0.0000
@<TRIPOS>BOND
    1    1    2 1     
    2    1   26 1     
    3    1   27 1     
    4    1   28 1     
    5    2    3 1     
    6    2   29 1     
    7    2   30 1     
    8    3    4 1     
    9    3    6 1     
   10    3   31 1     
   11    4    5 1     
   12    4   32 1     
   13    4   33 1     
   14    5   34 1     
   15    5   35 1     
   16    5   36 1     
   17    6    7 1     
   18    6   11 1     
   19    6   37 1     
   20    7    8 am    
   21    7   38 1     
   22    8    9 1     
   23    8   10 2     
   24    9   39 1     
   25    9   40 1     
   26    9   41 1     
   27   11   16 1     
   28   11   12 1     
   29   11   42 1     
   30   12   13 1     
   31   12   14 1     
   32   12   43 1     
   33   13   44 1     
   34   14   15 1     
   35   14   23 1     
   36   14   45 1     
   37   15   16 1     
   38   15   46 1     
   39   15   47 1     
   40   16   17 1     
   41   16   48 1     
   42   17   18 ar    
   43   17   49 1     
   44   18   19 ar    
   45   18   20 ar    
   46   19   50 1     
   47   19   51 1     
   48   20   21 1     
   49   20   22 1     
   50   23   24 ar    
   51   23   25 ar    
@<TRIPOS>SUBSTRUCTURE
      1 ****           1
@<TRIPOS>SET
DONOR_HYDROGENS      STATIC     ATOMS    <user>   **** ""
7 38 44 49 50 51 21 22
ATOM$RED        STATIC     ATOMS    COLORGROUP SYSTEM
7 38 44 49 50 51 21 22
