#       Name:                BDH
#       Creating user name   gbret
#       Creation time:       Fri Sep  9 04:36:52 2016


#       File generated by GOLD software.
#

@<TRIPOS>MOLECULE
BDH
    32    32     1
SMALL
NO_CHARGES


@<TRIPOS>ATOM
      1 N1          -0.9955   1.9229  -2.6239 N.4            1 <1>                0.0000
      2 H2          -0.9818   0.9140  -2.6295 H              1 <1>                0.0000
      3 H3          -0.0489   2.2722  -2.6311 H              1 <1>                0.0000
      4 H4          -1.4835   2.2572  -3.4414 H              1 <1>                0.0000
      5 C5          -1.6831   2.3967  -1.4153 C.3            1 <1>                0.0000
      6 C6          -0.9431   1.8898  -0.1758 C.3            1 <1>                0.0000
      7 C7          -1.0285   0.3863  -0.1196 C.2            1 <1>                0.0000
      8 O8          -1.6226  -0.2202  -0.9856 O.2            1 <1>                0.0000
      9 N9          -0.4445  -0.2844   0.8931 N.am           1 <1>                0.0000
     10 C10         -0.5275  -1.7460   0.9478 C.3            1 <1>                0.0000
     11 C11          0.6551  -2.2944   1.7488 C.3            1 <1>                0.0000
     12 C12          1.9387  -1.9950   1.0182 C.2            1 <1>                0.0000
     13 C13          2.4909  -2.7276   0.0323 C.2            1 <1>                0.0000
     14 N14          3.6259  -2.1226  -0.3483 N.2            1 <1>                0.0000
     15 C15          3.7979  -1.0429   0.3642 C.2            1 <1>                0.0000
     16 N16          2.7645  -0.9230   1.2251 N.pl3          1 <1>                0.0000
     17 H17          2.6347  -0.2133   1.8734 H              1 <1>                0.0000
     18 C18         -1.8168  -2.1514   1.6143 C.2            1 <1>                0.0000
     19 O19         -2.5944  -1.2985   2.0073 O.co2          1 <1>                0.0000
     20 O20         -2.0823  -3.3323   1.7606 O.co2          1 <1>                0.0000
     21 C21         -1.7035   3.9035  -1.4070 C.2            1 <1>                0.0000
     22 O22         -1.1927   4.5252  -2.3230 O.co2          1 <1>                0.0000
     23 O23         -2.2309   4.5010  -0.4843 O.co2          1 <1>                0.0000
     24 H24         -2.7057   2.0194  -1.4076 H              1 <1>                0.0000
     25 H25          0.1027   2.1927  -0.2278 H              1 <1>                0.0000
     26 H26         -1.4000   2.3134   0.7186 H              1 <1>                0.0000
     27 H27          0.0307   0.2006   1.5858 H              1 <1>                0.0000
     28 H28         -0.4991  -2.1497  -0.0643 H              1 <1>                0.0000
     29 H29          0.6780  -1.8233   2.7315 H              1 <1>                0.0000
     30 H30          0.5463  -3.3727   1.8652 H              1 <1>                0.0000
     31 H31          2.0903  -3.6420  -0.3796 H              1 <1>                0.0000
     32 H32          4.6274  -0.3568   0.2771 H              1 <1>                0.0000
@<TRIPOS>BOND
    1    1    2 1     
    2    1    3 1     
    3    1    4 1     
    4    1    5 1     
    5    5    6 1     
    6    5   21 1     
    7    5   24 1     
    8    6    7 1     
    9    6   25 1     
   10    6   26 1     
   11    7    8 2     
   12    7    9 am    
   13    9   10 1     
   14    9   27 1     
   15   10   11 1     
   16   10   18 1     
   17   10   28 1     
   18   11   12 1     
   19   11   29 1     
   20   11   30 1     
   21   12   16 1     
   22   12   13 2     
   23   13   14 1     
   24   13   31 1     
   25   14   15 2     
   26   15   16 1     
   27   15   32 1     
   28   16   17 1     
   29   18   19 ar    
   30   18   20 ar    
   31   21   22 ar    
   32   21   23 ar    
@<TRIPOS>SUBSTRUCTURE
      1 ****           1
@<TRIPOS>SET
DONOR_HYDROGENS      STATIC     ATOMS    <user>   **** ""
5 2 3 4 27 17
ATOM$RED        STATIC     ATOMS    COLORGROUP SYSTEM
5 2 3 4 27 17
