#       Name:                BGM
#       Creating user name   gbret
#       Creation time:       Fri Sep  9 04:43:03 2016


#       File generated by GOLD software.
#

@<TRIPOS>MOLECULE
BGM
    35    37     1
SMALL
NO_CHARGES


@<TRIPOS>ATOM
      1 N1           3.3229   4.3952  -0.2847 N.pl3          1 <1>                0.0000
      2 C2           3.3415   3.0229  -0.2923 C.2            1 <1>                0.0000
      3 N3           2.2013   2.3692  -0.2903 N.2            1 <1>                0.0000
      4 C4           2.1711   1.0314  -0.2974 C.2            1 <1>                0.0000
      5 N5           1.1679   0.0996  -0.2971 N.pl3          1 <1>                0.0000
      6 C6          -0.2709   0.3756  -0.2889 C.3            1 <1>                0.0000
      7 C7          -0.8907   0.0402  -1.6636 C.3            1 <1>                0.0000
      8 C8          -2.2750  -0.5519  -1.3169 C.3            1 <1>                0.0000
      9 O9          -2.3731  -1.9003  -1.7798 O.3            1 <1>                0.0000
     10 C10         -2.3279  -0.5042   0.2263 C.3            1 <1>                0.0000
     11 C11         -3.0434  -1.7411   0.7732 C.3            1 <1>                0.0000
     12 O12         -3.1846  -1.6220   2.1902 O.3            1 <1>                0.0000
     13 P13         -3.8938  -2.7466   3.0983 P.3            1 <1>                0.0000
     14 O14         -3.0484  -4.0647   3.0521 O.co2          1 <1>                0.0000
     15 O15         -3.9898  -2.2392   4.5774 O.co2          1 <1>                0.0000
     16 O16         -5.3334  -3.0299   2.5489 O.co2          1 <1>                0.0000
     17 O17         -0.9450  -0.4980   0.6429 O.3            1 <1>                0.0000
     18 C18          1.7534  -1.1337  -0.3064 C.2            1 <1>                0.0000
     19 Br19         0.8223  -2.7796  -0.3108 Br             1 <1>                0.0000
     20 N20          3.0492  -1.0064  -0.3123 N.2            1 <1>                0.0000
     21 C21          3.3706   0.3109  -0.3071 C.2            1 <1>                0.0000
     22 C22          4.5903   1.0268  -0.3089 C.2            1 <1>                0.0000
     23 O23          5.6590   0.4400  -0.3173 O.2            1 <1>                0.0000
     24 N24          4.5418   2.3773  -0.3072 N.am           1 <1>                0.0000
     25 H25          5.3654   2.8898  -0.3087 H              1 <1>                0.0000
     26 H26          4.1562   4.8916  -0.2899 H              1 <1>                0.0000
     27 H27          2.4763   4.8687  -0.2781 H              1 <1>                0.0000
     28 H28         -0.4550   1.4188  -0.0321 H              1 <1>                0.0000
     29 H29         -1.0010   0.9436  -2.2634 H              1 <1>                0.0000
     30 H30         -0.2811  -0.6956  -2.1881 H              1 <1>                0.0000
     31 H31         -3.0697   0.0574  -1.7473 H              1 <1>                0.0000
     32 H32         -2.2854  -1.9945  -2.7382 H              1 <1>                0.0000
     33 H33         -2.8308   0.4031   0.5609 H              1 <1>                0.0000
     34 H34         -4.0292  -1.8227   0.3154 H              1 <1>                0.0000
     35 H35         -2.4596  -2.6315   0.5398 H              1 <1>                0.0000
@<TRIPOS>BOND
    1    1    2 1     
    2    1   26 1     
    3    1   27 1     
    4    2   24 1     
    5    2    3 2     
    6    3    4 1     
    7    4   21 2     
    8    4    5 1     
    9    5    6 1     
   10    5   18 1     
   11    6   17 1     
   12    6    7 1     
   13    6   28 1     
   14    7    8 1     
   15    7   29 1     
   16    7   30 1     
   17    8    9 1     
   18    8   10 1     
   19    8   31 1     
   20    9   32 1     
   21   10   11 1     
   22   10   17 1     
   23   10   33 1     
   24   11   12 1     
   25   11   34 1     
   26   11   35 1     
   27   12   13 1     
   28   13   14 ar    
   29   13   15 ar    
   30   13   16 ar    
   31   18   19 1     
   32   18   20 2     
   33   20   21 1     
   34   21   22 1     
   35   22   23 2     
   36   22   24 am    
   37   24   25 1     
@<TRIPOS>SUBSTRUCTURE
      1 ****           1
@<TRIPOS>SET
DONOR_HYDROGENS      STATIC     ATOMS    <user>   **** ""
4 26 27 32 25
ATOM$RED        STATIC     ATOMS    COLORGROUP SYSTEM
4 26 27 32 25
