#       Name:                BHR
#       Creating user name   gbret
#       Creation time:       Fri Sep  9 04:45:26 2016


#       File generated by GOLD software.
#

@<TRIPOS>MOLECULE
BHR
    52    53     1
SMALL
NO_CHARGES


@<TRIPOS>ATOM
      1 O1           1.3998  -3.7071  -3.3192 O.3            1 <1>                0.0000
      2 C2           2.0096  -2.8492  -2.4582 C.ar           1 <1>                0.0000
      3 C3           2.8113  -3.3401  -1.4402 C.ar           1 <1>                0.0000
      4 C4           3.4309  -2.4666  -0.5660 C.ar           1 <1>                0.0000
      5 C5           3.2525  -1.1026  -0.7045 C.ar           1 <1>                0.0000
      6 C6           2.4536  -0.6063  -1.7177 C.ar           1 <1>                0.0000
      7 C7           2.2609   0.8811  -1.8652 C.3            1 <1>                0.0000
      8 N8           0.9206   1.2506  -1.3911 N.4            1 <1>                0.0000
      9 H9           0.2290   0.6925  -1.8689 H              1 <1>                0.0000
     10 C10          0.8294   1.0104   0.0553 C.3            1 <1>                0.0000
     11 C11         -0.6015   1.2764   0.5272 C.3            1 <1>                0.0000
     12 N12         -0.6927   1.0362   1.9736 N.3            1 <1>                0.0000
     13 C13          0.1093   2.0139   2.7212 C.3            1 <1>                0.0000
     14 C14          0.3178   1.5205   4.1298 C.2            1 <1>                0.0000
     15 O15         -0.0737   0.4115   4.4515 O.co2          1 <1>                0.0000
     16 O16          0.8780   2.2302   4.9477 O.co2          1 <1>                0.0000
     17 C17         -2.0914   1.0495   2.4223 C.3            1 <1>                0.0000
     18 C18         -2.8113  -0.1483   1.8583 C.ar           1 <1>                0.0000
     19 C19         -3.6808   0.0047   0.7955 C.ar           1 <1>                0.0000
     20 C20         -4.3418  -1.0936   0.2780 C.ar           1 <1>                0.0000
     21 C21         -4.1345  -2.3480   0.8221 C.ar           1 <1>                0.0000
     22 C22         -3.2659  -2.5063   1.8843 C.ar           1 <1>                0.0000
     23 C23         -2.5972  -1.4063   2.4021 C.ar           1 <1>                0.0000
     24 O24         -1.7418  -1.5596   3.4469 O.3            1 <1>                0.0000
     25 C25          0.6782   2.6729  -1.6675 C.3            1 <1>                0.0000
     26 C26          0.6154   2.8915  -3.1572 C.2            1 <1>                0.0000
     27 O27          0.6506   1.9373  -3.9154 O.co2          1 <1>                0.0000
     28 O28          0.5294   4.0225  -3.6043 O.co2          1 <1>                0.0000
     29 C29          1.8346  -1.4761  -2.6011 C.ar           1 <1>                0.0000
     30 O30          1.0488  -0.9894  -3.5986 O.3            1 <1>                0.0000
     31 H31          1.9273  -3.9210  -4.1010 H              1 <1>                0.0000
     32 H32          2.9518  -4.4052  -1.3294 H              1 <1>                0.0000
     33 H33          4.0555  -2.8505   0.2270 H              1 <1>                0.0000
     34 H34          3.7379  -0.4234  -0.0194 H              1 <1>                0.0000
     35 H35          3.0125   1.4051  -1.2748 H              1 <1>                0.0000
     36 H36          2.3645   1.1586  -2.9142 H              1 <1>                0.0000
     37 H37          1.0961  -0.0246   0.2693 H              1 <1>                0.0000
     38 H38          1.5144   1.6777   0.5783 H              1 <1>                0.0000
     39 H39         -0.8682   2.3114   0.3133 H              1 <1>                0.0000
     40 H40         -1.2866   0.6091   0.0042 H              1 <1>                0.0000
     41 H41          1.0759   2.1398   2.2335 H              1 <1>                0.0000
     42 H42         -0.4131   2.9703   2.7448 H              1 <1>                0.0000
     43 H43         -2.1241   1.0135   3.5112 H              1 <1>                0.0000
     44 H44         -2.5760   1.9617   2.0742 H              1 <1>                0.0000
     45 H45         -3.8444   0.9833   0.3689 H              1 <1>                0.0000
     46 H46         -5.0216  -0.9718  -0.5523 H              1 <1>                0.0000
     47 H47         -4.6523  -3.2044   0.4162 H              1 <1>                0.0000
     48 H48         -3.1044  -3.4861   2.3089 H              1 <1>                0.0000
     49 H49         -0.8188  -1.6804   3.1851 H              1 <1>                0.0000
     50 H50         -0.2666   2.9749  -1.2158 H              1 <1>                0.0000
     51 H51          1.4888   3.2680  -1.2468 H              1 <1>                0.0000
     52 H52          1.5245  -0.8071  -4.4206 H              1 <1>                0.0000
@<TRIPOS>BOND
    1    1    2 1     
    2    1   31 1     
    3    2   29 ar    
    4    2    3 ar    
    5    3    4 ar    
    6    3   32 1     
    7    4    5 ar    
    8    4   33 1     
    9    5    6 ar    
   10    5   34 1     
   11    6    7 1     
   12    6   29 ar    
   13    7    8 1     
   14    7   35 1     
   15    7   36 1     
   16    8    9 1     
   17    8   10 1     
   18    8   25 1     
   19   10   11 1     
   20   10   37 1     
   21   10   38 1     
   22   11   12 1     
   23   11   39 1     
   24   11   40 1     
   25   12   13 1     
   26   12   17 1     
   27   13   14 1     
   28   13   41 1     
   29   13   42 1     
   30   14   15 ar    
   31   14   16 ar    
   32   17   18 1     
   33   17   43 1     
   34   17   44 1     
   35   18   23 ar    
   36   18   19 ar    
   37   19   20 ar    
   38   19   45 1     
   39   20   21 ar    
   40   20   46 1     
   41   21   22 ar    
   42   21   47 1     
   43   22   23 ar    
   44   22   48 1     
   45   23   24 1     
   46   24   49 1     
   47   25   26 1     
   48   25   50 1     
   49   25   51 1     
   50   26   27 ar    
   51   26   28 ar    
   52   29   30 1     
   53   30   52 1     
@<TRIPOS>SUBSTRUCTURE
      1 ****           1
@<TRIPOS>SET
DONOR_HYDROGENS      STATIC     ATOMS    <user>   **** ""
4 31 9 49 52
ATOM$RED        STATIC     ATOMS    COLORGROUP SYSTEM
4 31 9 49 52
