#       Name:                BIL
#       Creating user name   gbret
#       Creation time:       Fri Sep  9 04:47:14 2016


#       File generated by GOLD software.
#

@<TRIPOS>MOLECULE
BIL
    25    24     1
SMALL
NO_CHARGES


@<TRIPOS>ATOM
      1 C1           1.3543   2.7082  -0.0477 C.3            1 <1>                0.0000
      2 C2           1.3751   1.1783  -0.0561 C.3            1 <1>                0.0000
      3 C3          -0.0603   0.6488  -0.0452 C.3            1 <1>                0.0000
      4 C4          -0.7622   1.0512  -1.3438 C.3            1 <1>                0.0000
      5 C5          -0.0403  -0.8766   0.0721 C.3            1 <1>                0.0000
      6 N6           0.6337  -1.2630   1.3189 N.4            1 <1>                0.0000
      7 H7           1.5803  -0.9137   1.3118 H              1 <1>                0.0000
      8 H8           0.1367  -0.8717   2.1051 H              1 <1>                0.0000
      9 H9           0.6469  -2.2689   1.3963 H              1 <1>                0.0000
     10 C10         -1.4756  -1.4062   0.0830 C.3            1 <1>                0.0000
     11 C11         -1.4552  -2.9130   0.0747 C.2            1 <1>                0.0000
     12 O12         -0.3912  -3.5082   0.0613 O.co2          1 <1>                0.0000
     13 O13         -2.5027  -3.5369   0.0813 O.co2          1 <1>                0.0000
     14 H14          2.3769   3.0855  -0.0554 H              1 <1>                0.0000
     15 H15          0.8271   3.0692  -0.9307 H              1 <1>                0.0000
     16 H16          0.8441   3.0597   0.8491 H              1 <1>                0.0000
     17 H17          1.8853   0.8268  -0.9529 H              1 <1>                0.0000
     18 H18          1.9023   0.8173   0.8270 H              1 <1>                0.0000
     19 H19         -0.5971   1.0715   0.8040 H              1 <1>                0.0000
     20 H20         -1.7848   0.6739  -1.3360 H              1 <1>                0.0000
     21 H21         -0.7765   2.1379  -1.4274 H              1 <1>                0.0000
     22 H22         -0.2254   0.6285  -2.1930 H              1 <1>                0.0000
     23 H23          0.4966  -1.2993  -0.7771 H              1 <1>                0.0000
     24 H24         -1.9858  -1.0547   0.9798 H              1 <1>                0.0000
     25 H25         -2.0028  -1.0451  -0.8001 H              1 <1>                0.0000
@<TRIPOS>BOND
    1    1    2 1     
    2    1   14 1     
    3    1   15 1     
    4    1   16 1     
    5    2    3 1     
    6    2   17 1     
    7    2   18 1     
    8    3    4 1     
    9    3    5 1     
   10    3   19 1     
   11    4   20 1     
   12    4   21 1     
   13    4   22 1     
   14    5    6 1     
   15    5   10 1     
   16    5   23 1     
   17    6    7 1     
   18    6    8 1     
   19    6    9 1     
   20   10   11 1     
   21   10   24 1     
   22   10   25 1     
   23   11   12 ar    
   24   11   13 ar    
@<TRIPOS>SUBSTRUCTURE
      1 ****           1
@<TRIPOS>SET
DONOR_HYDROGENS      STATIC     ATOMS    <user>   **** ""
3 7 8 9
ATOM$RED        STATIC     ATOMS    COLORGROUP SYSTEM
3 7 8 9
