#       Name:                BJA
#       Creating user name   gbret
#       Creation time:       Fri Sep  9 04:48:27 2016


#       File generated by GOLD software.
#

@<TRIPOS>MOLECULE
BJA
    77    79     1
SMALL
NO_CHARGES


@<TRIPOS>ATOM
      1 N1           7.8487   2.5485   1.1846 N.pl3          1 <1>                0.0000
      2 C2           7.9217   1.2210   1.2657 C.cat          1 <1>                0.0000
      3 N3           9.1097   0.6219   1.3279 N.pl3          1 <1>                0.0000
      4 H4           9.9217   1.1524   1.3141 H              1 <1>                0.0000
      5 H5           9.1629  -0.3448   1.3870 H              1 <1>                0.0000
      6 N6           6.7767   0.4730   1.2852 N.pl3          1 <1>                0.0000
      7 C7           5.4701   1.1320   1.2168 C.3            1 <1>                0.0000
      8 C8           4.3637   0.0759   1.2556 C.3            1 <1>                0.0000
      9 C9           2.9990   0.7641   1.1842 C.3            1 <1>                0.0000
     10 C10          1.8979  -0.2946   1.0975 C.3            1 <1>                0.0000
     11 N11          1.9036  -1.1062   2.3172 N.pl3          1 <1>                0.0000
     12 S12          1.5744  -2.7271   2.2348 S.o2           1 <1>                0.0000
     13 O13          1.6399  -3.1670   3.5843 O.2            1 <1>                0.0000
     14 O14          0.3616  -2.8013   1.4981 O.2            1 <1>                0.0000
     15 C15          2.9473  -3.4194   1.2722 C.3            1 <1>                0.0000
     16 C16          2.7037  -4.8874   1.0341 C.ar           1 <1>                0.0000
     17 C17          3.1669  -5.8211   1.9422 C.ar           1 <1>                0.0000
     18 C18          2.9435  -7.1677   1.7238 C.ar           1 <1>                0.0000
     19 C19          2.2566  -7.5805   0.5975 C.ar           1 <1>                0.0000
     20 C20          1.7926  -6.6468  -0.3102 C.ar           1 <1>                0.0000
     21 C21          2.0123  -5.3000  -0.0896 C.ar           1 <1>                0.0000
     22 C22          0.5598   0.3831   0.9514 C.2            1 <1>                0.0000
     23 O23         -0.3039   0.2057   1.7841 O.2            1 <1>                0.0000
     24 N24          0.3230   1.1864  -0.1046 N.am           1 <1>                0.0000
     25 C25          1.2765   1.4836  -1.1889 C.3            1 <1>                0.0000
     26 C26          0.3923   1.8882  -2.3948 C.3            1 <1>                0.0000
     27 C27         -0.7478   2.6744  -1.6950 C.3            1 <1>                0.0000
     28 C28         -0.9312   1.9064  -0.3692 C.3            1 <1>                0.0000
     29 C29         -2.0731   0.9311  -0.4957 C.2            1 <1>                0.0000
     30 O30         -1.8721  -0.2580  -0.3673 O.2            1 <1>                0.0000
     31 N31         -3.3178   1.3803  -0.7514 N.am           1 <1>                0.0000
     32 C32         -4.4279   0.4322  -0.8744 C.3            1 <1>                0.0000
     33 C33         -5.7021   1.1848  -1.1590 C.ar           1 <1>                0.0000
     34 C34         -6.4905   1.6256  -0.1111 C.ar           1 <1>                0.0000
     35 C35         -7.6585   2.3148  -0.3651 C.ar           1 <1>                0.0000
     36 C36         -8.0436   2.5673  -1.6820 C.ar           1 <1>                0.0000
     37 C37         -7.2439   2.1205  -2.7344 C.ar           1 <1>                0.0000
     38 C38         -6.0756   1.4370  -2.4671 C.ar           1 <1>                0.0000
     39 C39         -9.2953   3.3054  -1.9615 C.2            1 <1>                0.0000
     40 N40         -9.3956   4.0548  -3.0575 N.pl3          1 <1>                0.0000
     41 N41        -10.3211   3.2202  -1.1171 N.pl3          1 <1>                0.0000
     42 H42        -10.2480   2.6743  -0.3186 H              1 <1>                0.0000
     43 H43        -11.1416   3.7039  -1.3003 H              1 <1>                0.0000
     44 H44          8.6607   3.0789   1.1707 H              1 <1>                0.0000
     45 H45          6.9837   2.9845   1.1352 H              1 <1>                0.0000
     46 H46          6.8299  -0.4937   1.3443 H              1 <1>                0.0000
     47 H47          5.3584   1.8065   2.0657 H              1 <1>                0.0000
     48 H48          5.3977   1.7000   0.2894 H              1 <1>                0.0000
     49 H49          4.4753  -0.5987   0.4067 H              1 <1>                0.0000
     50 H50          4.4360  -0.4922   2.1830 H              1 <1>                0.0000
     51 H51          2.8506   1.3704   2.0777 H              1 <1>                0.0000
     52 H52          2.9597   1.4023   0.3014 H              1 <1>                0.0000
     53 H53          2.0769  -0.9352   0.2340 H              1 <1>                0.0000
     54 H54          2.1003  -0.6941   3.1730 H              1 <1>                0.0000
     55 H55          3.0168  -2.9027   0.3150 H              1 <1>                0.0000
     56 H56          3.8788  -3.2904   1.8233 H              1 <1>                0.0000
     57 H57          3.7036  -5.4985   2.8221 H              1 <1>                0.0000
     58 H58          3.3060  -7.8971   2.4329 H              1 <1>                0.0000
     59 H59          2.0826  -8.6326   0.4265 H              1 <1>                0.0000
     60 H60          1.2562  -6.9694  -1.1903 H              1 <1>                0.0000
     61 H61          1.6498  -4.5705  -0.7987 H              1 <1>                0.0000
     62 H62          1.9300   2.3081  -0.9041 H              1 <1>                0.0000
     63 H63          1.8647   0.5981  -1.4301 H              1 <1>                0.0000
     64 H64          0.9418   2.5284  -3.0849 H              1 <1>                0.0000
     65 H65          0.0029   1.0081  -2.9066 H              1 <1>                0.0000
     66 H66         -0.4475   3.7056  -1.5092 H              1 <1>                0.0000
     67 H67         -1.6615   2.6387  -2.2884 H              1 <1>                0.0000
     68 H68         -1.1282   2.6079   0.4414 H              1 <1>                0.0000
     69 H69         -3.4787   2.3314  -0.8541 H              1 <1>                0.0000
     70 H70         -4.2251  -0.2608  -1.6909 H              1 <1>                0.0000
     71 H71         -4.5350  -0.1245   0.0566 H              1 <1>                0.0000
     72 H72         -6.1913   1.4295   0.9079 H              1 <1>                0.0000
     73 H73         -8.2735   2.6577   0.4538 H              1 <1>                0.0000
     74 H74         -7.5369   2.3127  -3.7560 H              1 <1>                0.0000
     75 H75         -5.4557   1.0906  -3.2808 H              1 <1>                0.0000
     76 H76         -8.6482   4.1169  -3.6727 H              1 <1>                0.0000
     77 H77        -10.2161   4.5387  -3.2407 H              1 <1>                0.0000
@<TRIPOS>BOND
    1    1    2 ar    
    2    1   44 1     
    3    1   45 1     
    4    2    3 ar    
    5    2    6 ar    
    6    3    4 1     
    7    3    5 1     
    8    6    7 1     
    9    6   46 1     
   10    7    8 1     
   11    7   47 1     
   12    7   48 1     
   13    8    9 1     
   14    8   49 1     
   15    8   50 1     
   16    9   10 1     
   17    9   51 1     
   18    9   52 1     
   19   10   11 1     
   20   10   22 1     
   21   10   53 1     
   22   11   12 1     
   23   11   54 1     
   24   12   13 2     
   25   12   14 2     
   26   12   15 1     
   27   15   16 1     
   28   15   55 1     
   29   15   56 1     
   30   16   21 ar    
   31   16   17 ar    
   32   17   18 ar    
   33   17   57 1     
   34   18   19 ar    
   35   18   58 1     
   36   19   20 ar    
   37   19   59 1     
   38   20   21 ar    
   39   20   60 1     
   40   21   61 1     
   41   22   23 2     
   42   22   24 am    
   43   24   28 1     
   44   24   25 1     
   45   25   26 1     
   46   25   62 1     
   47   25   63 1     
   48   26   27 1     
   49   26   64 1     
   50   26   65 1     
   51   27   28 1     
   52   27   66 1     
   53   27   67 1     
   54   28   29 1     
   55   28   68 1     
   56   29   30 2     
   57   29   31 am    
   58   31   32 1     
   59   31   69 1     
   60   32   33 1     
   61   32   70 1     
   62   32   71 1     
   63   33   38 ar    
   64   33   34 ar    
   65   34   35 ar    
   66   34   72 1     
   67   35   36 ar    
   68   35   73 1     
   69   36   37 ar    
   70   36   39 1     
   71   37   38 ar    
   72   37   74 1     
   73   38   75 1     
   74   39   40 2     
   75   39   41 1     
   76   40   76 1     
   77   40   77 1     
   78   41   42 1     
   79   41   43 1     
@<TRIPOS>SUBSTRUCTURE
      1 ****           1
@<TRIPOS>SET
DONOR_HYDROGENS      STATIC     ATOMS    <user>   **** ""
11 44 45 4 5 46 54 69 76 77 42 43
ATOM$RED        STATIC     ATOMS    COLORGROUP SYSTEM
11 44 45 4 5 46 54 69 76 77 42 43
