#       Name:                BL7
#       Creating user name   gbret
#       Creation time:       Fri Sep  9 04:50:14 2016


#       File generated by GOLD software.
#

@<TRIPOS>MOLECULE
BL7
    36    39     1
SMALL
NO_CHARGES


@<TRIPOS>ATOM
      1 O1           1.7456   2.1034   0.1339 O.3            1 <1>                0.0000
      2 C2           1.7763   0.6750   0.1606 C.3            1 <1>                0.0000
      3 C3           2.4044   0.1268   1.4603 C.3            1 <1>                0.0000
      4 C4           1.1696  -0.0640   2.3676 C.3            1 <1>                0.0000
      5 N5          -0.0071  -0.0236   1.4873 N.pl3          1 <1>                0.0000
      6 C6           0.3801   0.0646   0.1842 C.2            1 <1>                0.0000
      7 N7          -0.2903  -0.2899  -0.8741 N.pl3          1 <1>                0.0000
      8 H8          -1.2142  -0.5704  -0.7807 H              1 <1>                0.0000
      9 C9           0.2819  -0.2736  -2.1104 C.ar           1 <1>                0.0000
     10 C10         -0.4999  -0.4368  -3.2556 C.ar           1 <1>                0.0000
     11 C11          0.0925  -0.4190  -4.4998 C.ar           1 <1>                0.0000
     12 C12          1.4622  -0.2403  -4.6334 C.ar           1 <1>                0.0000
     13 C13          2.2569  -0.0757  -3.5189 C.ar           1 <1>                0.0000
     14 C14          1.6760  -0.0907  -2.2512 C.ar           1 <1>                0.0000
     15 C15          2.4880   0.0951  -1.0469 C.2            1 <1>                0.0000
     16 O16          3.6632  -0.2040  -1.0086 O.2            1 <1>                0.0000
     17 C17         -1.3340  -0.0692   1.9249 C.ar           1 <1>                0.0000
     18 C18         -2.1620   1.0327   1.7528 C.ar           1 <1>                0.0000
     19 C19         -3.4723   0.9843   2.1864 C.ar           1 <1>                0.0000
     20 C20         -3.9602  -0.1593   2.7916 C.ar           1 <1>                0.0000
     21 C21         -3.1386  -1.2582   2.9645 C.ar           1 <1>                0.0000
     22 C22         -1.8291  -1.2187   2.5277 C.ar           1 <1>                0.0000
     23 H23          2.6203   2.5154   0.1185 H              1 <1>                0.0000
     24 H24          2.9028  -0.8254   1.2785 H              1 <1>                0.0000
     25 H25          3.0950   0.8509   1.8926 H              1 <1>                0.0000
     26 H26          1.2239  -1.0274   2.8746 H              1 <1>                0.0000
     27 H27          1.1160   0.7416   3.0999 H              1 <1>                0.0000
     28 H28         -1.5671  -0.5770  -3.1665 H              1 <1>                0.0000
     29 H29         -0.5170  -0.5461  -5.3823 H              1 <1>                0.0000
     30 H30          1.9085  -0.2297  -5.6168 H              1 <1>                0.0000
     31 H31          3.3225   0.0633  -3.6268 H              1 <1>                0.0000
     32 H32         -1.7814   1.9265   1.2809 H              1 <1>                0.0000
     33 H33         -4.1166   1.8408   2.0529 H              1 <1>                0.0000
     34 H34         -4.9851  -0.1943   3.1304 H              1 <1>                0.0000
     35 H35         -3.5228  -2.1498   3.4375 H              1 <1>                0.0000
     36 H36         -1.1879  -2.0772   2.6629 H              1 <1>                0.0000
@<TRIPOS>BOND
    1    1    2 1     
    2    1   23 1     
    3    2    6 1     
    4    2   15 1     
    5    2    3 1     
    6    3    4 1     
    7    3   24 1     
    8    3   25 1     
    9    4    5 1     
   10    4   26 1     
   11    4   27 1     
   12    5    6 2     
   13    5   17 1     
   14    6    7 1     
   15    7    8 1     
   16    7    9 1     
   17    9   14 ar    
   18    9   10 ar    
   19   10   11 ar    
   20   10   28 1     
   21   11   12 ar    
   22   11   29 1     
   23   12   13 ar    
   24   12   30 1     
   25   13   14 ar    
   26   13   31 1     
   27   14   15 1     
   28   15   16 2     
   29   17   22 ar    
   30   17   18 ar    
   31   18   19 ar    
   32   18   32 1     
   33   19   20 ar    
   34   19   33 1     
   35   20   21 ar    
   36   20   34 1     
   37   21   22 ar    
   38   21   35 1     
   39   22   36 1     
@<TRIPOS>SUBSTRUCTURE
      1 ****           1
@<TRIPOS>SET
DONOR_HYDROGENS      STATIC     ATOMS    <user>   **** ""
2 23 8
ATOM$RED        STATIC     ATOMS    COLORGROUP SYSTEM
2 23 8
