#       Name:                BNX
#       Creating user name   gbret
#       Creation time:       Fri Sep  9 04:55:35 2016


#       File generated by GOLD software.
#

@<TRIPOS>MOLECULE
BNX
    27    27     1
SMALL
NO_CHARGES


@<TRIPOS>ATOM
      1 O1           2.1710   3.0346   0.9525 O.3            1 <1>                0.0000
      2 C2           2.1904   1.6057   0.9446 C.3            1 <1>                0.0000
      3 C3           0.7550   1.0762   0.9555 C.3            1 <1>                0.0000
      4 O4           0.0996   1.4508  -0.2579 O.3            1 <1>                0.0000
      5 C5          -1.2623   1.0260  -0.3406 C.3            1 <1>                0.0000
      6 O6          -1.8269   1.4732  -1.5748 O.3            1 <1>                0.0000
      7 C7          -1.3235  -0.5023  -0.2753 C.3            1 <1>                0.0000
      8 O8          -0.6297  -1.0564  -1.3949 O.3            1 <1>                0.0000
      9 P9          -1.3397  -2.0054  -2.4845 P.3            1 <1>                0.0000
     10 O10         -2.4287  -1.1876  -3.2589 O.co2          1 <1>                0.0000
     11 O11         -0.2661  -2.5337  -3.4957 O.co2          1 <1>                0.0000
     12 O12         -2.0154  -3.2186  -1.7591 O.co2          1 <1>                0.0000
     13 C13         -0.6626  -0.9770   1.0225 C.3            1 <1>                0.0000
     14 O14         -0.6497  -2.4055   1.0576 O.3            1 <1>                0.0000
     15 C15          0.7748  -0.4501   1.0729 C.3            1 <1>                0.0000
     16 O16          1.5242  -1.0028  -0.0111 O.3            1 <1>                0.0000
     17 H17          3.0489   3.4399   0.9463 H              1 <1>                0.0000
     18 H18          2.7006   1.2542   0.0478 H              1 <1>                0.0000
     19 H19          2.7176   1.2447   1.8277 H              1 <1>                0.0000
     20 H20          0.2179   1.4991   1.8045 H              1 <1>                0.0000
     21 H21         -1.8260   1.4484   0.4912 H              1 <1>                0.0000
     22 H22         -1.8205   2.4339  -1.6850 H              1 <1>                0.0000
     23 H23         -2.3641  -0.8264  -0.2949 H              1 <1>                0.0000
     24 H24         -1.2221  -0.5963   1.8770 H              1 <1>                0.0000
     25 H25         -0.2445  -2.7757   1.8538 H              1 <1>                0.0000
     26 H26          1.2349  -0.7368   2.0185 H              1 <1>                0.0000
     27 H27          2.4458  -0.7114  -0.0410 H              1 <1>                0.0000
@<TRIPOS>BOND
    1    1    2 1     
    2    1   17 1     
    3    2    3 1     
    4    2   18 1     
    5    2   19 1     
    6    3   15 1     
    7    3    4 1     
    8    3   20 1     
    9    4    5 1     
   10    5    6 1     
   11    5    7 1     
   12    5   21 1     
   13    6   22 1     
   14    7    8 1     
   15    7   13 1     
   16    7   23 1     
   17    8    9 1     
   18    9   10 ar    
   19    9   11 ar    
   20    9   12 ar    
   21   13   14 1     
   22   13   15 1     
   23   13   24 1     
   24   14   25 1     
   25   15   16 1     
   26   15   26 1     
   27   16   27 1     
@<TRIPOS>SUBSTRUCTURE
      1 ****           1
@<TRIPOS>SET
DONOR_HYDROGENS      STATIC     ATOMS    <user>   **** ""
4 17 22 25 27
ATOM$RED        STATIC     ATOMS    COLORGROUP SYSTEM
4 17 22 25 27
