#       Name:                BPD
#       Creating user name   gbret
#       Creation time:       Fri Sep  9 04:57:34 2016


#       File generated by GOLD software.
#

@<TRIPOS>MOLECULE
BPD
    40    43     1
SMALL
NO_CHARGES


@<TRIPOS>ATOM
      1 O1           2.1076  -4.9743  -2.2530 O.co2          1 <1>                0.0000
      2 C2           2.1421  -3.9129  -1.6454 C.2            1 <1>                0.0000
      3 O3           3.1655  -3.5712  -1.0688 O.co2          1 <1>                0.0000
      4 C4           0.9545  -3.0445  -1.6134 C.ar           1 <1>                0.0000
      5 C5          -0.2191  -3.4320  -2.2722 C.ar           1 <1>                0.0000
      6 C6          -1.3301  -2.6197  -2.2412 C.ar           1 <1>                0.0000
      7 C7          -1.2951  -1.4120  -1.5601 C.ar           1 <1>                0.0000
      8 C8          -0.1423  -1.0149  -0.9065 C.ar           1 <1>                0.0000
      9 N9          -0.0967   0.2117  -0.2229 N.pl3          1 <1>                0.0000
     10 C10         -1.2643   0.9215   0.0677 C.ar           1 <1>                0.0000
     11 C11         -1.7549   1.8558  -0.8367 C.ar           1 <1>                0.0000
     12 C12         -2.9094   2.5550  -0.5464 C.ar           1 <1>                0.0000
     13 C13         -3.5774   2.3270   0.6432 C.ar           1 <1>                0.0000
     14 C14         -3.0919   1.3986   1.5457 C.ar           1 <1>                0.0000
     15 C15         -1.9410   0.6909   1.2591 C.ar           1 <1>                0.0000
     16 C16         -3.8230   1.1541   2.8406 C.3            1 <1>                0.0000
     17 F17         -4.9525   1.9773   2.9010 F              1 <1>                0.0000
     18 F18         -4.2186  -0.1862   2.9069 F              1 <1>                0.0000
     19 F19         -2.9765   1.4441   3.9160 F              1 <1>                0.0000
     20 C20          1.1647   0.6991   0.1585 C.ar           1 <1>                0.0000
     21 C21          1.3154   2.0112   0.5700 C.ar           1 <1>                0.0000
     22 C22          2.5641   2.4866   0.9418 C.ar           1 <1>                0.0000
     23 C23          3.6624   1.6575   0.9044 C.ar           1 <1>                0.0000
     24 C24          3.5253   0.3263   0.4913 C.ar           1 <1>                0.0000
     25 C25          4.6988  -0.5607   0.4517 C.2            1 <1>                0.0000
     26 O26          5.7981  -0.1358   0.7801 O.co2          1 <1>                0.0000
     27 O27          4.5753  -1.7230   0.0903 O.co2          1 <1>                0.0000
     28 C28          2.2641  -0.1565   0.1159 C.ar           1 <1>                0.0000
     29 O29          2.1204  -1.4433  -0.2800 O.3            1 <1>                0.0000
     30 C30          0.9899  -1.8278  -0.9185 C.ar           1 <1>                0.0000
     31 H31         -0.2525  -4.3702  -2.8062 H              1 <1>                0.0000
     32 H32         -2.2329  -2.9240  -2.7497 H              1 <1>                0.0000
     33 H33         -2.1703  -0.7795  -1.5403 H              1 <1>                0.0000
     34 H34         -1.2334   2.0348  -1.7654 H              1 <1>                0.0000
     35 H35         -3.2912   3.2812  -1.2488 H              1 <1>                0.0000
     36 H36         -4.4801   2.8757   0.8679 H              1 <1>                0.0000
     37 H37         -1.5626  -0.0343   1.9643 H              1 <1>                0.0000
     38 H38          0.4582   2.6674   0.6015 H              1 <1>                0.0000
     39 H39          2.6754   3.5121   1.2619 H              1 <1>                0.0000
     40 H40          4.6322   2.0345   1.1939 H              1 <1>                0.0000
@<TRIPOS>BOND
    1    1    2 ar    
    2    2    3 ar    
    3    2    4 1     
    4    4   30 ar    
    5    4    5 ar    
    6    5    6 ar    
    7    5   31 1     
    8    6    7 ar    
    9    6   32 1     
   10    7    8 ar    
   11    7   33 1     
   12    8   30 ar    
   13    8    9 1     
   14    9   10 1     
   15    9   20 1     
   16   10   15 ar    
   17   10   11 ar    
   18   11   12 ar    
   19   11   34 1     
   20   12   13 ar    
   21   12   35 1     
   22   13   14 ar    
   23   13   36 1     
   24   14   15 ar    
   25   14   16 1     
   26   15   37 1     
   27   16   17 1     
   28   16   18 1     
   29   16   19 1     
   30   20   28 ar    
   31   20   21 ar    
   32   21   22 ar    
   33   21   38 1     
   34   22   23 ar    
   35   22   39 1     
   36   23   24 ar    
   37   23   40 1     
   38   24   25 1     
   39   24   28 ar    
   40   25   26 ar    
   41   25   27 ar    
   42   28   29 1     
   43   29   30 1     
@<TRIPOS>SUBSTRUCTURE
      1 ****           1
