#       Name:                BR8
#       Creating user name   gbret
#       Creation time:       Fri Sep  9 04:59:49 2016


#       File generated by GOLD software.
#

@<TRIPOS>MOLECULE
BR8
    12    12     1
SMALL
NO_CHARGES


@<TRIPOS>ATOM
      1 O1           0.0416  -2.5905  -0.0159 O.2            1 <1>                0.0000
      2 C2           0.0250  -1.3701  -0.0092 C.2            1 <1>                0.0000
      3 C3          -1.1879  -0.6828   0.0119 C.ar           1 <1>                0.0000
      4 H4          -2.1242  -1.2211   0.0226 H              1 <1>                0.0000
      5 C5          -1.1711   0.7113   0.0196 C.2            1 <1>                0.0000
      6 O6          -2.2171   1.3399   0.0384 O.2            1 <1>                0.0000
      7 N7           0.0114   1.3583   0.0064 N.am           1 <1>                0.0000
      8 H8           0.0287   2.3281   0.0120 H              1 <1>                0.0000
      9 C9           1.1674   0.6710  -0.0139 C.2            1 <1>                0.0000
     10 O10          2.2215   1.2769  -0.0250 O.2            1 <1>                0.0000
     11 N11          1.1793  -0.6740  -0.0165 N.am           1 <1>                0.0000
     12 H12          2.0259  -1.1472  -0.0309 H              1 <1>                0.0000
@<TRIPOS>BOND
    1    1    2 2     
    2    2   11 1     
    3    2    3 1     
    4    3    4 1     
    5    3    5 1     
    6    5    6 2     
    7    5    7 1     
    8    7    8 1     
    9    7    9 1     
   10    9   10 2     
   11    9   11 1     
   12   11   12 1     
@<TRIPOS>SUBSTRUCTURE
      1 ****           1
@<TRIPOS>SET
DONOR_HYDROGENS      STATIC     ATOMS    <user>   **** ""
2 8 12
ATOM$RED        STATIC     ATOMS    COLORGROUP SYSTEM
2 8 12
