#       Name:                BRR
#       Creating user name   gbret
#       Creation time:       Fri Sep  9 05:00:58 2016


#       File generated by GOLD software.
#

@<TRIPOS>MOLECULE
BRR
    27    26     1
SMALL
NO_CHARGES


@<TRIPOS>ATOM
      1 C1          -1.2046   3.4739   2.0550 C.3            1 <1>                0.0000
      2 C2          -1.1838   1.9440   2.0466 C.3            1 <1>                0.0000
      3 C3          -0.4677   1.4506   0.7878 C.3            1 <1>                0.0000
      4 C4          -0.4469  -0.0792   0.7794 C.3            1 <1>                0.0000
      5 C5           0.2692  -0.5726  -0.4794 C.3            1 <1>                0.0000
      6 C6           0.4002  -2.0961  -0.4276 C.3            1 <1>                0.0000
      7 N7           1.1895  -2.5576  -1.5722 N.am           1 <1>                0.0000
      8 O8           0.5484  -3.1875  -2.6664 O.3            1 <1>                0.0000
      9 C9           2.5258  -2.3826  -1.5839 C.2            1 <1>                0.0000
     10 O10          3.1792  -2.7647  -2.5315 O.2            1 <1>                0.0000
     11 C11         -0.5261  -0.1780  -1.6971 C.2            1 <1>                0.0000
     12 O12         -0.0255   0.5401  -2.5458 O.co2          1 <1>                0.0000
     13 O13         -1.6701  -0.5769  -1.8336 O.co2          1 <1>                0.0000
     14 H14         -0.1820   3.8512   2.0473 H              1 <1>                0.0000
     15 H15         -1.7318   3.8349   1.1720 H              1 <1>                0.0000
     16 H16         -1.7148   3.8254   2.9518 H              1 <1>                0.0000
     17 H17         -0.6566   1.5830   2.9297 H              1 <1>                0.0000
     18 H18         -2.2064   1.5667   2.0544 H              1 <1>                0.0000
     19 H19         -0.9949   1.8117  -0.0952 H              1 <1>                0.0000
     20 H20          0.5549   1.8279   0.7801 H              1 <1>                0.0000
     21 H21          0.0802  -0.4403   1.6625 H              1 <1>                0.0000
     22 H22         -1.4695  -0.4565   0.7871 H              1 <1>                0.0000
     23 H23          1.2613  -0.1242  -0.5324 H              1 <1>                0.0000
     24 H24          0.8978  -2.3867   0.4977 H              1 <1>                0.0000
     25 H25         -0.5912  -2.5475  -0.4642 H              1 <1>                0.0000
     26 H26          1.1508  -3.4569  -3.3733 H              1 <1>                0.0000
     27 H27          3.0148  -1.9022  -0.7493 H              1 <1>                0.0000
@<TRIPOS>BOND
    1    1    2 1     
    2    1   14 1     
    3    1   15 1     
    4    1   16 1     
    5    2    3 1     
    6    2   17 1     
    7    2   18 1     
    8    3    4 1     
    9    3   19 1     
   10    3   20 1     
   11    4    5 1     
   12    4   21 1     
   13    4   22 1     
   14    5    6 1     
   15    5   11 1     
   16    5   23 1     
   17    6    7 1     
   18    6   24 1     
   19    6   25 1     
   20    7    8 1     
   21    7    9 am    
   22    8   26 1     
   23    9   10 2     
   24    9   27 1     
   25   11   12 ar    
   26   11   13 ar    
@<TRIPOS>SUBSTRUCTURE
      1 ****           1
@<TRIPOS>SET
DONOR_HYDROGENS      STATIC     ATOMS    <user>   **** ""
1 26
ATOM$RED        STATIC     ATOMS    COLORGROUP SYSTEM
1 26
