#       Name:                BTN
#       Creating user name   gbret
#       Creation time:       Fri Sep  9 05:04:00 2016


#       File generated by GOLD software.
#

@<TRIPOS>MOLECULE
BTN
    31    32     1
SMALL
NO_CHARGES


@<TRIPOS>ATOM
      1 O1           5.2676  -0.9238   0.4017 O.co2          1 <1>                0.0000
      2 C2           5.2510   0.2953   0.4084 C.2            1 <1>                0.0000
      3 O3           6.2985   0.9192   0.4018 O.co2          1 <1>                0.0000
      4 C4           3.9359   1.0310   0.4187 C.3            1 <1>                0.0000
      5 C5           2.7865   0.0211   0.4186 C.3            1 <1>                0.0000
      6 C6           1.4513   0.7680   0.4290 C.3            1 <1>                0.0000
      7 C7           0.3020  -0.2420   0.4290 C.3            1 <1>                0.0000
      8 C8          -1.0333   0.5049   0.4394 C.3            1 <1>                0.0000
      9 S9          -1.3465   1.3032  -1.1876 S.3            1 <1>                0.0000
     10 C10         -3.1783   1.2657  -1.0275 C.3            1 <1>                0.0000
     11 C11         -3.4253  -0.0512  -0.2656 C.3            1 <1>                0.0000
     12 N12         -3.6010  -1.1451  -1.2337 N.am           1 <1>                0.0000
     13 C13         -2.6568  -2.0721  -1.0220 C.2            1 <1>                0.0000
     14 O14         -2.5659  -3.0890  -1.6823 O.2            1 <1>                0.0000
     15 N15         -1.8217  -1.7762  -0.0167 N.am           1 <1>                0.0000
     16 C16         -2.2105  -0.4820   0.5652 C.3            1 <1>                0.0000
     17 H17          3.8738   1.6520   1.3123 H              1 <1>                0.0000
     18 H18          3.8654   1.6616  -0.4676 H              1 <1>                0.0000
     19 H19          2.8486  -0.5999  -0.4751 H              1 <1>                0.0000
     20 H20          2.8570  -0.6096   1.3049 H              1 <1>                0.0000
     21 H21          1.3893   1.3889   1.3227 H              1 <1>                0.0000
     22 H22          1.3808   1.3986  -0.4572 H              1 <1>                0.0000
     23 H23          0.3640  -0.8629  -0.4647 H              1 <1>                0.0000
     24 H24          0.3724  -0.8726   1.3152 H              1 <1>                0.0000
     25 H25         -1.0572   1.2395   1.2443 H              1 <1>                0.0000
     26 H26         -3.5332   2.1190  -0.4495 H              1 <1>                0.0000
     27 H27         -3.6515   1.2388  -2.0091 H              1 <1>                0.0000
     28 H28         -4.3050   0.0409   0.3714 H              1 <1>                0.0000
     29 H29         -4.2898  -1.1885  -1.9153 H              1 <1>                0.0000
     30 H30         -1.0800  -2.3266   0.2795 H              1 <1>                0.0000
     31 H31         -2.4878  -0.6069   1.6119 H              1 <1>                0.0000
@<TRIPOS>BOND
    1    1    2 ar    
    2    2    3 ar    
    3    2    4 1     
    4    4    5 1     
    5    4   17 1     
    6    4   18 1     
    7    5    6 1     
    8    5   19 1     
    9    5   20 1     
   10    6    7 1     
   11    6   21 1     
   12    6   22 1     
   13    7    8 1     
   14    7   23 1     
   15    7   24 1     
   16    8   16 1     
   17    8    9 1     
   18    8   25 1     
   19    9   10 1     
   20   10   11 1     
   21   10   26 1     
   22   10   27 1     
   23   11   16 1     
   24   11   12 1     
   25   11   28 1     
   26   12   13 am    
   27   12   29 1     
   28   13   14 2     
   29   13   15 am    
   30   15   16 1     
   31   15   30 1     
   32   16   31 1     
@<TRIPOS>SUBSTRUCTURE
      1 ****           1
@<TRIPOS>SET
DONOR_HYDROGENS      STATIC     ATOMS    <user>   **** ""
2 29 30
ATOM$RED        STATIC     ATOMS    COLORGROUP SYSTEM
2 29 30
