#       Name:                BZ0
#       Creating user name   gbret
#       Creation time:       Fri Sep  9 05:09:55 2016


#       File generated by GOLD software.
#

@<TRIPOS>MOLECULE
BZ0
    41    43     1
SMALL
NO_CHARGES


@<TRIPOS>ATOM
      1 N1           0.7493   1.1404   1.1300 N.pl3          1 <1>                0.0000
      2 C2           0.7629  -0.2338   1.1163 C.2            1 <1>                0.0000
      3 C3          -0.4207  -0.9436   1.1091 C.2            1 <1>                0.0000
      4 N4          -1.6603  -0.2713   1.1150 N.am           1 <1>                0.0000
      5 C5          -2.5348  -0.4612   0.1072 C.2            1 <1>                0.0000
      6 O6          -2.2927  -1.2760  -0.7625 O.2            1 <1>                0.0000
      7 C7          -3.7882   0.3210   0.0589 C.ar           1 <1>                0.0000
      8 C8          -4.0665   1.2611   1.0525 C.ar           1 <1>                0.0000
      9 C9          -5.2380   1.9878   1.0015 C.ar           1 <1>                0.0000
     10 C10         -6.1365   1.7860  -0.0311 C.ar           1 <1>                0.0000
     11 C11         -5.8670   0.8554  -1.0189 C.ar           1 <1>                0.0000
     12 C12         -4.6960   0.1269  -0.9835 C.ar           1 <1>                0.0000
     13 C13         -0.3691  -2.3503   1.0951 C.2            1 <1>                0.0000
     14 O14         -1.3996  -3.0023   1.0881 O.2            1 <1>                0.0000
     15 N15          0.8265  -2.9715   1.0892 N.am           1 <1>                0.0000
     16 H16          0.8632  -3.9407   1.0792 H              1 <1>                0.0000
     17 C17          1.9696  -2.2631   1.0964 C.2            1 <1>                0.0000
     18 O18          3.0350  -2.8493   1.0908 O.2            1 <1>                0.0000
     19 N19          1.9562  -0.9178   1.1040 N.am           1 <1>                0.0000
     20 C20          3.2201  -0.1771   1.1118 C.3            1 <1>                0.0000
     21 C21          3.6575   0.0849  -0.3063 C.ar           1 <1>                0.0000
     22 C22          4.4588  -0.8305  -0.9628 C.ar           1 <1>                0.0000
     23 C23          4.8600  -0.5901  -2.2636 C.ar           1 <1>                0.0000
     24 C24          4.4596   0.5654  -2.9081 C.ar           1 <1>                0.0000
     25 C25          3.6576   1.4803  -2.2519 C.ar           1 <1>                0.0000
     26 C26          3.2528   1.2379  -0.9526 C.ar           1 <1>                0.0000
     27 H27          1.5846   1.6337   1.1310 H              1 <1>                0.0000
     28 H28         -0.0954   1.6171   1.1346 H              1 <1>                0.0000
     29 H29         -1.8836   0.3278   1.8445 H              1 <1>                0.0000
     30 H30         -3.3663   1.4191   1.8595 H              1 <1>                0.0000
     31 H31         -5.4546   2.7154   1.7696 H              1 <1>                0.0000
     32 H32         -7.0524   2.3572  -0.0662 H              1 <1>                0.0000
     33 H33         -6.5727   0.7022  -1.8219 H              1 <1>                0.0000
     34 H34         -4.4867  -0.5993  -1.7551 H              1 <1>                0.0000
     35 H35          3.0821   0.7715   1.6306 H              1 <1>                0.0000
     36 H36          3.9821  -0.7642   1.6245 H              1 <1>                0.0000
     37 H37          4.7716  -1.7332  -0.4593 H              1 <1>                0.0000
     38 H38          5.4866  -1.3049  -2.7763 H              1 <1>                0.0000
     39 H39          4.7737   0.7535  -3.9242 H              1 <1>                0.0000
     40 H40          3.3451   2.3833  -2.7554 H              1 <1>                0.0000
     41 H41          2.6263   1.9528  -0.4399 H              1 <1>                0.0000
@<TRIPOS>BOND
    1    1    2 1     
    2    1   27 1     
    3    1   28 1     
    4    2   19 1     
    5    2    3 2     
    6    3    4 1     
    7    3   13 1     
    8    4    5 am    
    9    4   29 1     
   10    5    6 2     
   11    5    7 1     
   12    7   12 ar    
   13    7    8 ar    
   14    8    9 ar    
   15    8   30 1     
   16    9   10 ar    
   17    9   31 1     
   18   10   11 ar    
   19   10   32 1     
   20   11   12 ar    
   21   11   33 1     
   22   12   34 1     
   23   13   14 2     
   24   13   15 1     
   25   15   16 1     
   26   15   17 1     
   27   17   18 2     
   28   17   19 1     
   29   19   20 1     
   30   20   21 1     
   31   20   35 1     
   32   20   36 1     
   33   21   26 ar    
   34   21   22 ar    
   35   22   23 ar    
   36   22   37 1     
   37   23   24 ar    
   38   23   38 1     
   39   24   25 ar    
   40   24   39 1     
   41   25   26 ar    
   42   25   40 1     
   43   26   41 1     
@<TRIPOS>SUBSTRUCTURE
      1 ****           1
@<TRIPOS>SET
DONOR_HYDROGENS      STATIC     ATOMS    <user>   **** ""
4 27 28 29 16
ATOM$RED        STATIC     ATOMS    COLORGROUP SYSTEM
4 27 28 29 16
