#       Name:                C1C
#       Creating user name   gbret
#       Creation time:       Fri Sep  9 05:13:40 2016


#       File generated by GOLD software.
#

@<TRIPOS>MOLECULE
C1C
    38    41     1
SMALL
NO_CHARGES


@<TRIPOS>ATOM
      1 O1           0.8918  -4.0666  -0.4264 O.co2          1 <1>                0.0000
      2 C2           0.8752  -2.8433  -0.4197 C.2            1 <1>                0.0000
      3 O3           1.9262  -2.2173  -0.4263 O.co2          1 <1>                0.0000
      4 C4          -0.4100  -2.1244  -0.4097 C.ar           1 <1>                0.0000
      5 C5          -1.6147  -2.8459  -0.4020 C.ar           1 <1>                0.0000
      6 C6          -2.8134  -2.2066  -0.3922 C.ar           1 <1>                0.0000
      7 C7          -2.8699  -0.7999  -0.3900 C.ar           1 <1>                0.0000
      8 C8          -4.1027  -0.1260  -0.3798 C.ar           1 <1>                0.0000
      9 C9          -4.1276   1.2357  -0.3776 C.ar           1 <1>                0.0000
     10 C10         -2.9466   1.9741  -0.3856 C.ar           1 <1>                0.0000
     11 C11         -1.7335   1.3538  -0.3955 C.ar           1 <1>                0.0000
     12 C12         -1.6696  -0.0472  -0.3977 C.ar           1 <1>                0.0000
     13 C13         -0.4256  -0.7225  -0.4020 C.ar           1 <1>                0.0000
     14 C14          0.8364   0.0380  -0.4047 C.ar           1 <1>                0.0000
     15 C15          1.4382   0.4109  -1.6149 C.ar           1 <1>                0.0000
     16 C16          2.6409   1.1356  -1.6137 C.ar           1 <1>                0.0000
     17 C17          3.2437   1.4895  -0.4487 C.ar           1 <1>                0.0000
     18 C18          2.6699   1.1333   0.7865 C.ar           1 <1>                0.0000
     19 C19          3.2827   1.4929   1.9987 C.ar           1 <1>                0.0000
     20 C20          2.7052   1.1353   3.1791 C.ar           1 <1>                0.0000
     21 C21          1.5125   0.4163   3.2046 C.ar           1 <1>                0.0000
     22 C22          0.8908   0.0509   2.0485 C.ar           1 <1>                0.0000
     23 C23          1.4540   0.4067   0.8143 C.ar           1 <1>                0.0000
     24 C24          0.8065   0.0406  -2.8926 C.2            1 <1>                0.0000
     25 O25          1.3294   0.3646  -3.9500 O.co2          1 <1>                0.0000
     26 O26         -0.2412  -0.5912  -2.8966 O.co2          1 <1>                0.0000
     27 H27         -1.5879  -3.9256  -0.4043 H              1 <1>                0.0000
     28 H28         -3.7281  -2.7807  -0.3864 H              1 <1>                0.0000
     29 H29         -5.0266  -0.6853  -0.3742 H              1 <1>                0.0000
     30 H30         -5.0770   1.7505  -0.3697 H              1 <1>                0.0000
     31 H31         -2.9930   3.0531  -0.3844 H              1 <1>                0.0000
     32 H32         -0.8253   1.9383  -0.4014 H              1 <1>                0.0000
     33 H33          3.0939   1.4157  -2.5533 H              1 <1>                0.0000
     34 H34          4.1685   2.0469  -0.4704 H              1 <1>                0.0000
     35 H35          4.2078   2.0501   1.9943 H              1 <1>                0.0000
     36 H36          3.1790   1.4131   4.1090 H              1 <1>                0.0000
     37 H37          1.0747   0.1443   4.1537 H              1 <1>                0.0000
     38 H38         -0.0335  -0.5068   2.0824 H              1 <1>                0.0000
@<TRIPOS>BOND
    1    1    2 ar    
    2    2    3 ar    
    3    2    4 1     
    4    4   13 ar    
    5    4    5 ar    
    6    5    6 ar    
    7    5   27 1     
    8    6    7 ar    
    9    6   28 1     
   10    7   12 ar    
   11    7    8 ar    
   12    8    9 ar    
   13    8   29 1     
   14    9   10 ar    
   15    9   30 1     
   16   10   11 ar    
   17   10   31 1     
   18   11   12 ar    
   19   11   32 1     
   20   12   13 ar    
   21   13   14 1     
   22   14   23 ar    
   23   14   15 ar    
   24   15   16 ar    
   25   15   24 1     
   26   16   17 ar    
   27   16   33 1     
   28   17   18 ar    
   29   17   34 1     
   30   18   23 ar    
   31   18   19 ar    
   32   19   20 ar    
   33   19   35 1     
   34   20   21 ar    
   35   20   36 1     
   36   21   22 ar    
   37   21   37 1     
   38   22   23 ar    
   39   22   38 1     
   40   24   25 ar    
   41   24   26 ar    
@<TRIPOS>SUBSTRUCTURE
      1 ****           1
