#       Name:                C29
#       Creating user name   gbret
#       Creation time:       Fri Sep  9 05:15:27 2016


#       File generated by GOLD software.
#

@<TRIPOS>MOLECULE
C29
    24    25     1
SMALL
NO_CHARGES


@<TRIPOS>ATOM
      1 C1          -1.0808   2.1655  -1.1496 C.3            1 <1>                0.0000
      2 N2          -1.0609   0.6966  -1.1577 N.3            1 <1>                0.0000
      3 C3          -0.5215   0.1850  -2.4226 C.3            1 <1>                0.0000
      4 C4          -0.4167  -1.3427  -2.3280 C.3            1 <1>                0.0000
      5 O5           0.5192  -1.6550  -1.2909 O.3            1 <1>                0.0000
      6 C6           0.3964  -0.9577  -0.1274 C.ar           1 <1>                0.0000
      7 C7           1.0567  -1.4217   0.9948 C.ar           1 <1>                0.0000
      8 C8           0.9563  -0.7268   2.2047 C.ar           1 <1>                0.0000
      9 C9           0.1847   0.4385   2.2726 C.ar           1 <1>                0.0000
     10 C10         -0.4715   0.8934   1.1539 C.ar           1 <1>                0.0000
     11 C11         -0.3740   0.2014  -0.0543 C.ar           1 <1>                0.0000
     12 C12          1.6583  -1.2193   3.4004 C.2            1 <1>                0.0000
     13 O13          2.3318  -2.2388   3.3379 O.co2          1 <1>                0.0000
     14 O14          1.5684  -0.6092   4.4572 O.co2          1 <1>                0.0000
     15 H15         -0.0624   2.5421  -1.0547 H              1 <1>                0.0000
     16 H16         -1.5171   2.5280  -2.0804 H              1 <1>                0.0000
     17 H17         -1.6778   2.5161  -0.3077 H              1 <1>                0.0000
     18 H18         -1.1884   0.4561  -3.2411 H              1 <1>                0.0000
     19 H19          0.4672   0.6095  -2.5970 H              1 <1>                0.0000
     20 H20         -1.3916  -1.7650  -2.0846 H              1 <1>                0.0000
     21 H21         -0.0648  -1.7479  -3.2768 H              1 <1>                0.0000
     22 H22          1.6506  -2.3219   0.9376 H              1 <1>                0.0000
     23 H23          0.1046   0.9800   3.2036 H              1 <1>                0.0000
     24 H24         -1.0669   1.7927   1.2101 H              1 <1>                0.0000
@<TRIPOS>BOND
    1    1    2 1     
    2    1   15 1     
    3    1   16 1     
    4    1   17 1     
    5    2   11 1     
    6    2    3 1     
    7    3    4 1     
    8    3   18 1     
    9    3   19 1     
   10    4    5 1     
   11    4   20 1     
   12    4   21 1     
   13    5    6 1     
   14    6   11 ar    
   15    6    7 ar    
   16    7    8 ar    
   17    7   22 1     
   18    8    9 ar    
   19    8   12 1     
   20    9   10 ar    
   21    9   23 1     
   22   10   11 ar    
   23   10   24 1     
   24   12   13 ar    
   25   12   14 ar    
@<TRIPOS>SUBSTRUCTURE
      1 ****           1
