#       Name:                C3O
#       Creating user name   gbret
#       Creation time:       Fri Sep  9 05:17:41 2016


#       File generated by GOLD software.
#

@<TRIPOS>MOLECULE
C3O
    84    86     1
SMALL
NO_CHARGES


@<TRIPOS>ATOM
      1 C1          -0.1952   5.6515   8.8290 C.3            1 <1>                0.0000
      2 C2          -0.4538   4.1506   8.6833 C.3            1 <1>                0.0000
      3 C3           0.2155   3.6394   7.4059 C.3            1 <1>                0.0000
      4 O4          -0.0261   2.2375   7.2698 O.3            1 <1>                0.0000
      5 C5           0.5594   1.6575   6.1024 C.3            1 <1>                0.0000
      6 C6           0.9186   0.1983   6.3854 C.3            1 <1>                0.0000
      7 O7          -0.2785  -0.5540   6.5926 O.3            1 <1>                0.0000
      8 C8           1.6884  -0.3867   5.1969 C.3            1 <1>                0.0000
      9 C9           0.8276  -0.2504   3.9568 C.2            1 <1>                0.0000
     10 C10          0.6563  -1.2771   3.0986 C.2            1 <1>                0.0000
     11 C11         -0.1834  -1.1063   1.9107 C.2            1 <1>                0.0000
     12 C12         -0.3526  -2.1208   1.0628 C.2            1 <1>                0.0000
     13 C13          0.2953  -3.4809   1.2790 C.3            1 <1>                0.0000
     14 C14          1.0212  -3.9406   0.0162 C.3            1 <1>                0.0000
     15 C15          0.1370  -3.7979  -1.2340 C.3            1 <1>                0.0000
     16 C16         -0.2464  -2.3417  -1.3571 C.3            1 <1>                0.0000
     17 C17          1.0121  -1.4775  -1.2561 C.3            1 <1>                0.0000
     18 C18         -1.0435  -1.9053  -2.5765 C.3            1 <1>                0.0000
     19 C19         -1.9204  -0.7249  -2.0831 C.3            1 <1>                0.0000
     20 C20         -1.6608  -0.5966  -0.5554 C.3            1 <1>                0.0000
     21 C21         -1.2002  -2.0052  -0.1692 C.3            1 <1>                0.0000
     22 C22         -0.1015  -1.4391  -3.6884 C.3            1 <1>                0.0000
     23 C23          0.7347  -2.6231  -4.1781 C.3            1 <1>                0.0000
     24 C24         -0.9229  -0.8791  -4.8513 C.3            1 <1>                0.0000
     25 C25          0.0191  -0.2995  -5.9085 C.3            1 <1>                0.0000
     26 C26         -0.8024   0.2605  -7.0715 C.3            1 <1>                0.0000
     27 C27          0.1396   0.8400  -8.1287 C.3            1 <1>                0.0000
     28 C28         -0.6821   1.5105  -9.2315 C.3            1 <1>                0.0000
     29 C29          1.0610   1.8743  -7.4789 C.3            1 <1>                0.0000
     30 O30          0.9264  -0.2109  -8.6932 O.3            1 <1>                0.0000
     31 C31          0.1847   1.0613   3.7335 C.2            1 <1>                0.0000
     32 C32          0.1539   1.6281   2.5275 C.2            1 <1>                0.0000
     33 C33         -0.4383   1.7309   4.9421 C.3            1 <1>                0.0000
     34 O34         -1.6439   1.0524   5.3002 O.3            1 <1>                0.0000
     35 H35          0.8784   5.8315   8.8843 H              1 <1>                0.0000
     36 H36         -0.6077   6.1766   7.9675 H              1 <1>                0.0000
     37 H37         -0.6720   6.0157   9.7390 H              1 <1>                0.0000
     38 H38         -0.0413   3.6255   9.5448 H              1 <1>                0.0000
     39 H39         -1.5274   3.9706   8.6280 H              1 <1>                0.0000
     40 H40         -0.1970   4.1645   6.5444 H              1 <1>                0.0000
     41 H41          1.2891   3.8194   7.4613 H              1 <1>                0.0000
     42 H42          1.4629   2.2074   5.8388 H              1 <1>                0.0000
     43 H43          1.5395   0.1448   7.2797 H              1 <1>                0.0000
     44 H44         -0.1272  -1.4909   6.7778 H              1 <1>                0.0000
     45 H45          2.6210   0.1602   5.0584 H              1 <1>                0.0000
     46 H46          1.9032  -1.4394   5.3809 H              1 <1>                0.0000
     47 H47          1.1384  -2.2249   3.2875 H              1 <1>                0.0000
     48 H48         -0.6654  -0.1585   1.7219 H              1 <1>                0.0000
     49 H49          1.0103  -3.4116   2.0989 H              1 <1>                0.0000
     50 H50         -0.4746  -4.2086   1.5356 H              1 <1>                0.0000
     51 H51          1.9212  -3.3400  -0.1148 H              1 <1>                0.0000
     52 H52          1.3072  -4.9861   0.1315 H              1 <1>                0.0000
     53 H53          0.6930  -4.1101  -2.1181 H              1 <1>                0.0000
     54 H54         -0.7594  -4.4085  -1.1250 H              1 <1>                0.0000
     55 H55          1.7531  -1.8294  -1.9740 H              1 <1>                0.0000
     56 H56          0.7590  -0.4400  -1.4743 H              1 <1>                0.0000
     57 H57          1.4210  -1.5475  -0.2482 H              1 <1>                0.0000
     58 H58         -1.6725  -2.7223  -2.9300 H              1 <1>                0.0000
     59 H59         -1.6299   0.1950  -2.5907 H              1 <1>                0.0000
     60 H60         -2.9733  -0.9382  -2.2673 H              1 <1>                0.0000
     61 H61         -0.8791   0.1365  -0.3566 H              1 <1>                0.0000
     62 H62         -2.5787  -0.3367  -0.0281 H              1 <1>                0.0000
     63 H63         -2.0472  -2.6899  -0.1257 H              1 <1>                0.0000
     64 H64          0.5591  -0.6625  -3.3030 H              1 <1>                0.0000
     65 H65          0.0730  -3.4115  -4.5368 H              1 <1>                0.0000
     66 H66          1.3852  -2.2974  -4.9899 H              1 <1>                0.0000
     67 H67          1.3416  -3.0038  -3.3567 H              1 <1>                0.0000
     68 H68         -1.5180  -1.6780  -5.2937 H              1 <1>                0.0000
     69 H69         -1.5841  -0.0941  -4.4843 H              1 <1>                0.0000
     70 H70          0.6141   0.4994  -5.4662 H              1 <1>                0.0000
     71 H71          0.6803  -1.0845  -6.2756 H              1 <1>                0.0000
     72 H72         -1.3974  -0.5384  -7.5139 H              1 <1>                0.0000
     73 H73         -1.4636   1.0455  -6.7045 H              1 <1>                0.0000
     74 H74         -1.2823   2.3121  -8.8009 H              1 <1>                0.0000
     75 H75         -0.0111   1.9234  -9.9846 H              1 <1>                0.0000
     76 H76         -1.3385   0.7737  -9.6944 H              1 <1>                0.0000
     77 H77          1.6464   1.3966  -6.6933 H              1 <1>                0.0000
     78 H78          1.7321   2.2872  -8.2320 H              1 <1>                0.0000
     79 H79          0.4608   2.6759  -7.0483 H              1 <1>                0.0000
     80 H80          1.5479   0.0845  -9.3726 H              1 <1>                0.0000
     81 H81          0.6059   1.1275   1.6839 H              1 <1>                0.0000
     82 H82         -0.3231   2.5878   2.3938 H              1 <1>                0.0000
     83 H83         -0.6577   2.7735   4.7119 H              1 <1>                0.0000
     84 H84         -2.3138   1.0463   4.6029 H              1 <1>                0.0000
@<TRIPOS>BOND
    1    1    2 1     
    2    1   35 1     
    3    1   36 1     
    4    1   37 1     
    5    2    3 1     
    6    2   38 1     
    7    2   39 1     
    8    3    4 1     
    9    3   40 1     
   10    3   41 1     
   11    4    5 1     
   12    5   33 1     
   13    5    6 1     
   14    5   42 1     
   15    6    7 1     
   16    6    8 1     
   17    6   43 1     
   18    7   44 1     
   19    8    9 1     
   20    8   45 1     
   21    8   46 1     
   22    9   10 2     
   23    9   31 1     
   24   10   11 1     
   25   10   47 1     
   26   11   12 2     
   27   11   48 1     
   28   12   21 1     
   29   12   13 1     
   30   13   14 1     
   31   13   49 1     
   32   13   50 1     
   33   14   15 1     
   34   14   51 1     
   35   14   52 1     
   36   15   16 1     
   37   15   53 1     
   38   15   54 1     
   39   16   21 1     
   40   16   17 1     
   41   16   18 1     
   42   17   55 1     
   43   17   56 1     
   44   17   57 1     
   45   18   19 1     
   46   18   22 1     
   47   18   58 1     
   48   19   20 1     
   49   19   59 1     
   50   19   60 1     
   51   20   21 1     
   52   20   61 1     
   53   20   62 1     
   54   21   63 1     
   55   22   23 1     
   56   22   24 1     
   57   22   64 1     
   58   23   65 1     
   59   23   66 1     
   60   23   67 1     
   61   24   25 1     
   62   24   68 1     
   63   24   69 1     
   64   25   26 1     
   65   25   70 1     
   66   25   71 1     
   67   26   27 1     
   68   26   72 1     
   69   26   73 1     
   70   27   28 1     
   71   27   29 1     
   72   27   30 1     
   73   28   74 1     
   74   28   75 1     
   75   28   76 1     
   76   29   77 1     
   77   29   78 1     
   78   29   79 1     
   79   30   80 1     
   80   31   32 2     
   81   31   33 1     
   82   32   81 1     
   83   32   82 1     
   84   33   34 1     
   85   33   83 1     
   86   34   84 1     
@<TRIPOS>SUBSTRUCTURE
      1 ****           1
@<TRIPOS>SET
DONOR_HYDROGENS      STATIC     ATOMS    <user>   **** ""
3 44 80 84
ATOM$RED        STATIC     ATOMS    COLORGROUP SYSTEM
3 44 80 84
