#       Name:                C5D
#       Creating user name   gbret
#       Creation time:       Fri Sep  9 05:20:28 2016


#       File generated by GOLD software.
#

@<TRIPOS>MOLECULE
C5D
    65    66     1
SMALL
NO_CHARGES


@<TRIPOS>ATOM
      1 C1           0.6471   2.3342   0.7983 C.3            1 <1>                0.0000
      2 C2           0.6636   0.8043   0.7931 C.3            1 <1>                0.0000
      3 C3          -0.7681   0.2653   0.7692 C.3            1 <1>                0.0000
      4 C4           1.4441   0.2885  -0.4334 C.3            1 <1>                0.0000
      5 C5           2.1946  -0.9606   0.0918 C.3            1 <1>                0.0000
      6 C6           2.6074  -0.5348   1.5226 C.3            1 <1>                0.0000
      7 C7           1.4032   0.2809   2.0368 C.3            1 <1>                0.0000
      8 C8           1.8905   1.4543   2.8892 C.3            1 <1>                0.0000
      9 C9           0.4757  -0.6157   2.8594 C.3            1 <1>                0.0000
     10 C10          1.2338  -1.1562   4.0735 C.3            1 <1>                0.0000
     11 C11          0.3414  -2.0188   4.8650 C.1            1 <1>                0.0000
     12 C12         -0.3703  -2.7068   5.4962 C.1            1 <1>                0.0000
     13 C13         -1.2626  -3.5694   6.2877 C.3            1 <1>                0.0000
     14 O14         -0.5545  -4.0743   7.4217 O.3            1 <1>                0.0000
     15 C15         -2.4698  -2.7571   6.7605 C.3            1 <1>                0.0000
     16 F16         -3.1630  -2.2628   5.6503 F              1 <1>                0.0000
     17 F17         -3.3179  -3.5769   7.5127 F              1 <1>                0.0000
     18 F18         -2.0325  -1.6887   7.5507 F              1 <1>                0.0000
     19 C19         -1.7409  -4.7379   5.4235 C.3            1 <1>                0.0000
     20 F20         -0.6370  -5.4806   4.9912 F              1 <1>                0.0000
     21 F21         -2.5890  -5.5577   6.1757 F              1 <1>                0.0000
     22 F22         -2.4341  -4.2436   4.3133 F              1 <1>                0.0000
     23 C23          0.4952  -0.0930  -1.5403 C.2            1 <1>                0.0000
     24 C24          0.5702   0.5157  -2.7189 C.2            1 <1>                0.0000
     25 C25         -0.3562   0.1433  -3.7994 C.2            1 <1>                0.0000
     26 C26         -0.3507   0.8210  -4.9423 C.2            1 <1>                0.0000
     27 C27          0.6773   1.9006  -5.1989 C.3            1 <1>                0.0000
     28 C28         -0.0525   3.1719  -5.6452 C.3            1 <1>                0.0000
     29 O29          0.9050   4.1666  -6.0137 O.3            1 <1>                0.0000
     30 C30         -0.9433   2.8514  -6.8466 C.3            1 <1>                0.0000
     31 C31         -2.0273   1.8532  -6.4367 C.3            1 <1>                0.0000
     32 O32         -2.9049   1.6225  -7.5407 O.3            1 <1>                0.0000
     33 C33         -1.3683   0.5283  -6.0226 C.3            1 <1>                0.0000
     34 H34          1.6707   2.7086   0.7904 H              1 <1>                0.0000
     35 H35          0.1215   2.6949  -0.0858 H              1 <1>                0.0000
     36 H36          0.1373   2.6890   1.6940 H              1 <1>                0.0000
     37 H37         -1.2794   0.6314  -0.1211 H              1 <1>                0.0000
     38 H38         -0.7458  -0.8244   0.7530 H              1 <1>                0.0000
     39 H39         -1.2991   0.6047   1.6585 H              1 <1>                0.0000
     40 H40          2.1522   1.0415  -0.7794 H              1 <1>                0.0000
     41 H41          1.5316  -1.8252   0.1222 H              1 <1>                0.0000
     42 H42          3.0738  -1.1679  -0.5183 H              1 <1>                0.0000
     43 H43          2.7699  -1.4115   2.1496 H              1 <1>                0.0000
     44 H44          3.5033   0.0853   1.4926 H              1 <1>                0.0000
     45 H45          2.5504   2.0859   2.2946 H              1 <1>                0.0000
     46 H46          1.0344   2.0389   3.2261 H              1 <1>                0.0000
     47 H47          2.4338   1.0740   3.7542 H              1 <1>                0.0000
     48 H48         -0.3844  -0.0370   3.1963 H              1 <1>                0.0000
     49 H49          0.1349  -1.4481   2.2437 H              1 <1>                0.0000
     50 H50          2.0938  -1.7349   3.7367 H              1 <1>                0.0000
     51 H51          1.5745  -0.3238   4.6892 H              1 <1>                0.0000
     52 H52          0.2249  -4.6004   7.1964 H              1 <1>                0.0000
     53 H53         -0.2458  -0.8613  -1.3754 H              1 <1>                0.0000
     54 H54          1.3112   1.2839  -2.8838 H              1 <1>                0.0000
     55 H55         -1.0407  -0.6810  -3.6637 H              1 <1>                0.0000
     56 H56          1.2346   2.1005  -4.2838 H              1 <1>                0.0000
     57 H57          1.3608   1.5763  -5.9836 H              1 <1>                0.0000
     58 H58         -0.6671   3.5448  -4.8259 H              1 <1>                0.0000
     59 H59          1.5055   4.4185  -5.2988 H              1 <1>                0.0000
     60 H60         -1.4116   3.7680  -7.2051 H              1 <1>                0.0000
     61 H61         -0.3364   2.4204  -7.6429 H              1 <1>                0.0000
     62 H62         -2.5956   2.2573  -5.5989 H              1 <1>                0.0000
     63 H63         -3.6186   0.9980  -7.3520 H              1 <1>                0.0000
     64 H64         -0.8759   0.0791  -6.8850 H              1 <1>                0.0000
     65 H65         -2.1263  -0.1522  -5.6348 H              1 <1>                0.0000
@<TRIPOS>BOND
    1    1    2 1     
    2    1   34 1     
    3    1   35 1     
    4    1   36 1     
    5    2    7 1     
    6    2    3 1     
    7    2    4 1     
    8    3   37 1     
    9    3   38 1     
   10    3   39 1     
   11    4    5 1     
   12    4   23 1     
   13    4   40 1     
   14    5    6 1     
   15    5   41 1     
   16    5   42 1     
   17    6    7 1     
   18    6   43 1     
   19    6   44 1     
   20    7    8 1     
   21    7    9 1     
   22    8   45 1     
   23    8   46 1     
   24    8   47 1     
   25    9   10 1     
   26    9   48 1     
   27    9   49 1     
   28   10   11 1     
   29   10   50 1     
   30   10   51 1     
   31   11   12 3     
   32   12   13 1     
   33   13   14 1     
   34   13   15 1     
   35   13   19 1     
   36   14   52 1     
   37   15   16 1     
   38   15   17 1     
   39   15   18 1     
   40   19   20 1     
   41   19   21 1     
   42   19   22 1     
   43   23   24 2     
   44   23   53 1     
   45   24   25 1     
   46   24   54 1     
   47   25   26 2     
   48   25   55 1     
   49   26   33 1     
   50   26   27 1     
   51   27   28 1     
   52   27   56 1     
   53   27   57 1     
   54   28   29 1     
   55   28   30 1     
   56   28   58 1     
   57   29   59 1     
   58   30   31 1     
   59   30   60 1     
   60   30   61 1     
   61   31   32 1     
   62   31   33 1     
   63   31   62 1     
   64   32   63 1     
   65   33   64 1     
   66   33   65 1     
@<TRIPOS>SUBSTRUCTURE
      1 ****           1
@<TRIPOS>SET
DONOR_HYDROGENS      STATIC     ATOMS    <user>   **** ""
3 52 59 63
ATOM$RED        STATIC     ATOMS    COLORGROUP SYSTEM
3 52 59 63
