#       Name:                CBH
#       Creating user name   gbret
#       Creation time:       Fri Sep  9 05:28:39 2016


#       File generated by GOLD software.
#

@<TRIPOS>MOLECULE
CBH
    31    30     1
SMALL
NO_CHARGES


@<TRIPOS>ATOM
      1 N1           4.3371  -0.4756   0.7960 N.4            1 <1>                0.0000
      2 H2           4.3508  -1.4845   0.7904 H              1 <1>                0.0000
      3 H3           5.2837  -0.1263   0.7888 H              1 <1>                0.0000
      4 H4           3.8491  -0.1413  -0.0215 H              1 <1>                0.0000
      5 C5           3.6495  -0.0018   2.0046 C.3            1 <1>                0.0000
      6 C6           2.2141  -0.5314   2.0154 C.3            1 <1>                0.0000
      7 C7           1.4380   0.0746   0.8444 C.3            1 <1>                0.0000
      8 S8          -0.2638  -0.5532   0.8573 S.3            1 <1>                0.0000
      9 C9          -1.0113   0.2644  -0.5791 C.3            1 <1>                0.0000
     10 C10         -2.4731  -0.1683  -0.7088 C.3            1 <1>                0.0000
     11 C11         -3.1036   0.5214  -1.9203 C.3            1 <1>                0.0000
     12 C12         -4.5654   0.0887  -2.0499 C.3            1 <1>                0.0000
     13 C13         -5.1864   0.7680  -3.2432 C.2            1 <1>                0.0000
     14 O14         -4.5214   1.5277  -3.9267 O.co2          1 <1>                0.0000
     15 O15         -6.3538   0.5578  -3.5252 O.co2          1 <1>                0.0000
     16 C16          4.3784  -0.5010   3.2255 C.2            1 <1>                0.0000
     17 O17          5.3780  -1.1878   3.1004 O.co2          1 <1>                0.0000
     18 O18          3.9685  -0.2182   4.3383 O.co2          1 <1>                0.0000
     19 H19          3.6347   1.0881   2.0106 H              1 <1>                0.0000
     20 H20          2.2267  -1.6171   1.9199 H              1 <1>                0.0000
     21 H21          1.7318  -0.2547   2.9530 H              1 <1>                0.0000
     22 H22          1.4255   1.1604   0.9399 H              1 <1>                0.0000
     23 H23          1.9203  -0.2021  -0.0931 H              1 <1>                0.0000
     24 H24         -0.9626   1.3454  -0.4480 H              1 <1>                0.0000
     25 H25         -0.4677  -0.0170  -1.4810 H              1 <1>                0.0000
     26 H26         -2.5218  -1.2492  -0.8399 H              1 <1>                0.0000
     27 H27         -3.0166   0.1132   0.1932 H              1 <1>                0.0000
     28 H28         -3.0549   1.6024  -1.7891 H              1 <1>                0.0000
     29 H29         -2.5600   0.2399  -2.8222 H              1 <1>                0.0000
     30 H30         -4.6141  -0.9923  -2.1811 H              1 <1>                0.0000
     31 H31         -5.1089   0.3702  -1.1480 H              1 <1>                0.0000
@<TRIPOS>BOND
    1    1    2 1     
    2    1    3 1     
    3    1    4 1     
    4    1    5 1     
    5    5    6 1     
    6    5   16 1     
    7    5   19 1     
    8    6    7 1     
    9    6   20 1     
   10    6   21 1     
   11    7    8 1     
   12    7   22 1     
   13    7   23 1     
   14    8    9 1     
   15    9   10 1     
   16    9   24 1     
   17    9   25 1     
   18   10   11 1     
   19   10   26 1     
   20   10   27 1     
   21   11   12 1     
   22   11   28 1     
   23   11   29 1     
   24   12   13 1     
   25   12   30 1     
   26   12   31 1     
   27   13   14 ar    
   28   13   15 ar    
   29   16   17 ar    
   30   16   18 ar    
@<TRIPOS>SUBSTRUCTURE
      1 ****           1
@<TRIPOS>SET
DONOR_HYDROGENS      STATIC     ATOMS    <user>   **** ""
3 2 3 4
ATOM$RED        STATIC     ATOMS    COLORGROUP SYSTEM
3 2 3 4
