#       Name:                CF5
#       Creating user name   gbret
#       Creation time:       Fri Sep  9 05:37:13 2016


#       File generated by GOLD software.
#

@<TRIPOS>MOLECULE
CF5
    40    42     1
SMALL
NO_CHARGES


@<TRIPOS>ATOM
      1 O1           0.7362   3.7146   1.1279 O.3            1 <1>                0.0000
      2 C2           0.6887   2.2864   1.1431 C.3            1 <1>                0.0000
      3 C3          -0.7630   1.7952   1.3372 C.3            1 <1>                0.0000
      4 C4          -1.6005   2.8701   2.0329 C.3            1 <1>                0.0000
      5 O5          -2.9046   2.3544   2.3073 O.3            1 <1>                0.0000
      6 P6          -4.0532   3.2165   3.0352 P.3            1 <1>                0.0000
      7 O7          -4.4602   4.4217   2.1208 O.co2          1 <1>                0.0000
      8 O8          -5.3044   2.3090   3.2907 O.co2          1 <1>                0.0000
      9 O9          -3.5126   3.7576   4.4025 O.co2          1 <1>                0.0000
     10 O10         -1.2554   1.5615  -0.0002 O.3            1 <1>                0.0000
     11 C11         -0.1563   0.9483  -0.7086 C.3            1 <1>                0.0000
     12 C12          1.0970   1.7165  -0.2338 C.3            1 <1>                0.0000
     13 O13          1.4091   2.7752  -1.1414 O.3            1 <1>                0.0000
     14 N14         -0.0497  -0.4695  -0.3556 N.pl3          1 <1>                0.0000
     15 C15         -0.5858  -1.0696   0.7364 C.2            1 <1>                0.0000
     16 N16         -0.2752  -2.3332   0.7137 N.2            1 <1>                0.0000
     17 C17          0.4672  -2.6003  -0.3791 C.2            1 <1>                0.0000
     18 C18          1.0067  -3.9660  -0.6997 C.3            1 <1>                0.0000
     19 O19          0.1476  -4.9529  -0.1252 O.3            1 <1>                0.0000
     20 C20          1.0951  -4.1981  -2.1956 C.3            1 <1>                0.0000
     21 N21          2.0698  -3.3186  -2.8099 N.pl3          1 <1>                0.0000
     22 C22          1.8836  -1.9977  -3.0091 C.2            1 <1>                0.0000
     23 N23          1.2636  -1.1952  -2.2362 N.pl3          1 <1>                0.0000
     24 H24          1.2535  -0.2685  -2.5227 H              1 <1>                0.0000
     25 C25          0.6129  -1.4496  -1.0782 C.2            1 <1>                0.0000
     26 H26          1.6148   4.0770   0.9493 H              1 <1>                0.0000
     27 H27          1.3356   1.8921   1.9268 H              1 <1>                0.0000
     28 H28         -0.7768   0.8712   1.9154 H              1 <1>                0.0000
     29 H29         -1.1192   3.1572   2.9678 H              1 <1>                0.0000
     30 H30         -1.6837   3.7422   1.3844 H              1 <1>                0.0000
     31 H31         -0.2870   1.0635  -1.7846 H              1 <1>                0.0000
     32 H32          1.9442   1.0385  -0.1305 H              1 <1>                0.0000
     33 H33          2.1880   3.2907  -0.8914 H              1 <1>                0.0000
     34 H34         -1.1731  -0.5797   1.4989 H              1 <1>                0.0000
     35 H35          2.0018  -4.0658  -0.2663 H              1 <1>                0.0000
     36 H36          0.4297  -5.8633  -0.2889 H              1 <1>                0.0000
     37 H37          1.3827  -5.2332  -2.3796 H              1 <1>                0.0000
     38 H38          0.1181  -4.0156  -2.6432 H              1 <1>                0.0000
     39 H39          2.9118  -3.7056  -3.0964 H              1 <1>                0.0000
     40 H40          2.3014  -1.5782  -3.9123 H              1 <1>                0.0000
@<TRIPOS>BOND
    1    1    2 1     
    2    1   26 1     
    3    2   12 1     
    4    2    3 1     
    5    2   27 1     
    6    3    4 1     
    7    3   10 1     
    8    3   28 1     
    9    4    5 1     
   10    4   29 1     
   11    4   30 1     
   12    5    6 1     
   13    6    7 ar    
   14    6    8 ar    
   15    6    9 ar    
   16   10   11 1     
   17   11   12 1     
   18   11   14 1     
   19   11   31 1     
   20   12   13 1     
   21   12   32 1     
   22   13   33 1     
   23   14   25 1     
   24   14   15 1     
   25   15   16 2     
   26   15   34 1     
   27   16   17 1     
   28   17   25 2     
   29   17   18 1     
   30   18   19 1     
   31   18   20 1     
   32   18   35 1     
   33   19   36 1     
   34   20   21 1     
   35   20   37 1     
   36   20   38 1     
   37   21   22 2     
   38   21   39 1     
   39   22   23 1     
   40   22   40 1     
   41   23   24 1     
   42   23   25 1     
@<TRIPOS>SUBSTRUCTURE
      1 ****           1
@<TRIPOS>SET
DONOR_HYDROGENS      STATIC     ATOMS    <user>   **** ""
5 26 33 36 39 24
ATOM$RED        STATIC     ATOMS    COLORGROUP SYSTEM
5 26 33 36 39 24
