@<TRIPOS>MOLECULE
CH
  34   35    0    0    0
SMALL
NO_CHARGES


@<TRIPOS>ATOM
   1 N1            -0.0165     1.3666     0.0096 N.pl3   
   2 C2             0.0021    -0.0041     0.0020 C.2     
   3 C3            -1.1824    -0.7262     0.0036 C.2     
   4 C4            -1.1212    -2.1124    -0.0047 C.2     
   5 N5             0.0522    -2.7215    -0.0139 N.2     
   6 C6             0.1020    -4.1856    -0.0226 C.3     
   7 O7             0.8824    -4.6555    -1.1434 O.3     
   8 C8             1.2792    -5.9994    -0.7939 C.3     
   9 C9             2.4966    -6.4262    -1.6165 C.3     
  10 O10            2.1289    -6.5289    -2.9935 O.3     
  11 P11            3.1656    -6.9571    -4.1485 P.3     
  12 O12            3.6277    -8.4355    -3.9135 O.co2   
  13 O13            2.4664    -6.8443    -5.5459 O.co2   
  14 O14            4.4116    -6.0081    -4.1098 O.co2   
  15 C15            1.6423    -5.9264     0.7058 C.3     
  16 O16            3.0465    -5.7193     0.8715 O.3     
  17 C17            0.8500    -4.7057     1.2249 C.3     
  18 O18            1.7407    -3.7074     1.7270 O.3     
  19 C19            1.1897    -2.0291    -0.0159 C.2     
  20 O20            2.2537    -2.6255    -0.0249 O.2     
  21 N21            1.1867    -0.6829    -0.0129 N.am    
  22 H22            2.0254    -0.1957    -0.0148 H       
  23 H23            0.8168     1.8630     0.0043 H       
  24 H24           -0.8631     1.8401     0.0161 H       
  25 H25           -2.1355    -0.2184     0.0116 H       
  26 H26           -2.0316    -2.6935    -0.0032 H       
  27 H27           -0.9060    -4.5986    -0.0602 H       
  28 H28            0.4530    -6.6925    -0.9527 H       
  29 H29            3.2878    -5.6846    -1.5060 H       
  30 H30            2.8533    -7.3935    -1.2626 H       
  31 H31            1.3280    -6.8349     1.2196 H       
  32 H32            3.3299    -5.6656     1.7945 H       
  33 H33            0.1418    -5.0097     1.9957 H       
  34 H34            2.2798    -4.0011     2.4741 H       
@<TRIPOS>BOND
   1    1    2 1
   2    1   23 1
   3    1   24 1
   4    2   21 1
   5    2    3 2
   6    3    4 1
   7    3   25 1
   8    4    5 2
   9    4   26 1
  10    5    6 1
  11    5   19 1
  12    6   17 1
  13    6    7 1
  14    6   27 1
  15    7    8 1
  16    8    9 1
  17    8   15 1
  18    8   28 1
  19    9   10 1
  20    9   29 1
  21    9   30 1
  22   10   11 1
  23   11   12 ar
  24   11   13 ar
  25   11   14 ar
  26   15   16 1
  27   15   17 1
  28   15   31 1
  29   16   32 1
  30   17   18 1
  31   17   33 1
  32   18   34 1
  33   19   20 2
  34   19   21 am
  35   21   22 1





