#       Name:                CIY
#       Creating user name   gbret
#       Creation time:       Fri Sep  9 05:43:40 2016


#       File generated by GOLD software.
#

@<TRIPOS>MOLECULE
CIY
    23    23     1
SMALL
NO_CHARGES


@<TRIPOS>ATOM
      1 C1          -1.5066   1.8425  -2.5847 C.3            1 <1>                0.0000
      2 O2          -1.4872   0.4136  -2.5926 O.3            1 <1>                0.0000
      3 C3          -0.8631  -0.2011  -1.5524 C.ar           1 <1>                0.0000
      4 C4          -0.2899   0.5533  -0.5485 C.ar           1 <1>                0.0000
      5 C5           0.3521  -0.0835   0.5213 C.ar           1 <1>                0.0000
      6 C6           0.9632   0.7126   1.5924 C.2            1 <1>                0.0000
      7 C7           1.5840   0.0941   2.6267 C.2            1 <1>                0.0000
      8 C8           2.1702   0.8577   3.6540 C.2            1 <1>                0.0000
      9 O9           2.7265   0.3035   4.5808 O.2            1 <1>                0.0000
     10 C10          0.4087  -1.4823   0.5660 C.ar           1 <1>                0.0000
     11 C11         -0.1659  -2.2264  -0.4401 C.ar           1 <1>                0.0000
     12 C12         -0.8072  -1.5938  -1.4975 C.ar           1 <1>                0.0000
     13 O13         -1.3723  -2.3333  -2.4863 O.3            1 <1>                0.0000
     14 H14         -0.4840   2.2198  -2.5925 H              1 <1>                0.0000
     15 H15         -2.0338   2.2036  -3.4678 H              1 <1>                0.0000
     16 H16         -2.0168   2.1940  -1.6879 H              1 <1>                0.0000
     17 H17         -0.3361   1.6316  -0.5879 H              1 <1>                0.0000
     18 H18          0.9183   1.7911   1.5565 H              1 <1>                0.0000
     19 H19          1.6290  -0.9843   2.6626 H              1 <1>                0.0000
     20 H20          2.1252   1.9362   3.6181 H              1 <1>                0.0000
     21 H21          0.9031  -1.9771   1.3889 H              1 <1>                0.0000
     22 H22         -0.1217  -3.3049  -0.4047 H              1 <1>                0.0000
     23 H23         -2.2963  -2.5673  -2.3234 H              1 <1>                0.0000
@<TRIPOS>BOND
    1    1    2 1     
    2    1   14 1     
    3    1   15 1     
    4    1   16 1     
    5    2    3 1     
    6    3   12 ar    
    7    3    4 ar    
    8    4    5 ar    
    9    4   17 1     
   10    5    6 1     
   11    5   10 ar    
   12    6    7 2     
   13    6   18 1     
   14    7    8 1     
   15    7   19 1     
   16    8    9 2     
   17    8   20 1     
   18   10   11 ar    
   19   10   21 1     
   20   11   12 ar    
   21   11   22 1     
   22   12   13 1     
   23   13   23 1     
@<TRIPOS>SUBSTRUCTURE
      1 ****           1
@<TRIPOS>SET
DONOR_HYDROGENS      STATIC     ATOMS    <user>   **** ""
1 23
ATOM$RED        STATIC     ATOMS    COLORGROUP SYSTEM
1 23
