#       Name:                CJ5
#       Creating user name   gbret
#       Creation time:       Fri Sep  9 05:43:47 2016


#       File generated by GOLD software.
#

@<TRIPOS>MOLECULE
CJ5
    63    67     1
SMALL
NO_CHARGES


@<TRIPOS>ATOM
      1 F1           8.2261  -4.5115  -5.7849 F              1 <1>                0.0000
      2 C2           7.1795  -4.6658  -6.7005 C.3            1 <1>                0.0000
      3 F3           7.3176  -3.7276  -7.7290 F              1 <1>                0.0000
      4 F4           7.2173  -5.9566  -7.2386 F              1 <1>                0.0000
      5 C5           5.8629  -4.4522  -5.9991 C.ar           1 <1>                0.0000
      6 C6           5.2096  -5.5224  -5.4154 C.ar           1 <1>                0.0000
      7 C7           4.0015  -5.3306  -4.7710 C.ar           1 <1>                0.0000
      8 C8           3.4432  -4.0687  -4.7083 C.ar           1 <1>                0.0000
      9 C9           4.0968  -2.9921  -5.2928 C.ar           1 <1>                0.0000
     10 N10          3.5339  -1.7125  -5.2310 N.am           1 <1>                0.0000
     11 C11          2.8153  -1.3438  -4.1521 C.2            1 <1>                0.0000
     12 O12          2.7348  -2.0863  -3.1925 O.2            1 <1>                0.0000
     13 N13          2.1858  -0.1522  -4.1368 N.am           1 <1>                0.0000
     14 C14          1.5299   0.2790  -2.9757 C.ar           1 <1>                0.0000
     15 C15          2.0324  -0.0624  -1.7271 C.ar           1 <1>                0.0000
     16 C16          1.3866   0.3626  -0.5833 C.ar           1 <1>                0.0000
     17 C17          0.2344   1.1316  -0.6815 C.ar           1 <1>                0.0000
     18 N18         -0.4204   1.5632   0.4785 N.pl3          1 <1>                0.0000
     19 C19          0.3106   1.8588   1.6170 C.ar           1 <1>                0.0000
     20 N20          1.6343   1.8423   1.5572 N.ar           1 <1>                0.0000
     21 C21          2.3677   2.1200   2.6250 C.ar           1 <1>                0.0000
     22 C22          1.7386   2.4303   3.8150 C.ar           1 <1>                0.0000
     23 C23          0.3424   2.4398   3.8477 C.ar           1 <1>                0.0000
     24 N24         -0.3314   2.7455   5.0198 N.pl3          1 <1>                0.0000
     25 C25         -1.7270   2.6383   5.0736 C.2            1 <1>                0.0000
     26 C26         -2.5527   2.1056   4.0705 C.2            1 <1>                0.0000
     27 C27         -3.8319   2.1809   4.5027 C.2            1 <1>                0.0000
     28 N28         -3.8216   2.7390   5.7315 N.pl3          1 <1>                0.0000
     29 H29         -4.5993   2.9156   6.2837 H              1 <1>                0.0000
     30 N30         -2.4910   3.0129   6.0727 N.2            1 <1>                0.0000
     31 C31         -5.0524   1.7229   3.7465 C.3            1 <1>                0.0000
     32 C32         -5.5186   0.3372   4.2579 C.3            1 <1>                0.0000
     33 C33         -7.0159   0.3128   3.8620 C.3            1 <1>                0.0000
     34 C34         -7.4960   1.7580   4.1087 C.3            1 <1>                0.0000
     35 C35         -6.2476   2.6545   4.0353 C.3            1 <1>                0.0000
     36 N36         -0.3308   2.1561   2.7370 N.ar           1 <1>                0.0000
     37 C37         -0.2681   1.4730  -1.9304 C.ar           1 <1>                0.0000
     38 C38          0.3808   1.0523  -3.0740 C.ar           1 <1>                0.0000
     39 C39          5.3129  -3.1872  -5.9349 C.ar           1 <1>                0.0000
     40 H40          5.6439  -6.5101  -5.4634 H              1 <1>                0.0000
     41 H41          3.4936  -6.1684  -4.3165 H              1 <1>                0.0000
     42 H42          2.4991  -3.9196  -4.2054 H              1 <1>                0.0000
     43 H43          3.6609  -1.0908  -5.9647 H              1 <1>                0.0000
     44 H44          2.1868   0.4071  -4.9293 H              1 <1>                0.0000
     45 H45          2.9283  -0.6607  -1.6508 H              1 <1>                0.0000
     46 H46          1.7773   0.0968   0.3879 H              1 <1>                0.0000
     47 H47         -1.3860   1.6551   0.4847 H              1 <1>                0.0000
     48 H48          3.4459   2.1035   2.5657 H              1 <1>                0.0000
     49 H49          2.3133   2.6601   4.7000 H              1 <1>                0.0000
     50 H50          0.1634   3.0337   5.8027 H              1 <1>                0.0000
     51 H51         -2.2245   1.7069   3.1219 H              1 <1>                0.0000
     52 H52         -4.8461   1.6874   2.6768 H              1 <1>                0.0000
     53 H53         -4.9736  -0.4628   3.7570 H              1 <1>                0.0000
     54 H54         -5.4039   0.2660   5.3395 H              1 <1>                0.0000
     55 H55         -7.1282   0.0478   2.8107 H              1 <1>                0.0000
     56 H56         -7.5661  -0.3849   4.4932 H              1 <1>                0.0000
     57 H57         -8.2113   2.0502   3.3398 H              1 <1>                0.0000
     58 H58         -7.9543   1.8360   5.0946 H              1 <1>                0.0000
     59 H59         -6.1000   3.1676   4.9855 H              1 <1>                0.0000
     60 H60         -6.3570   3.3818   3.2308 H              1 <1>                0.0000
     61 H61         -1.1642   2.0710  -2.0069 H              1 <1>                0.0000
     62 H62         -0.0099   1.3177  -4.0453 H              1 <1>                0.0000
     63 H63          5.8239  -2.3518  -6.3903 H              1 <1>                0.0000
@<TRIPOS>BOND
    1    1    2 1     
    2    2    3 1     
    3    2    4 1     
    4    2    5 1     
    5    5   39 ar    
    6    5    6 ar    
    7    6    7 ar    
    8    6   40 1     
    9    7    8 ar    
   10    7   41 1     
   11    8    9 ar    
   12    8   42 1     
   13    9   10 1     
   14    9   39 ar    
   15   10   11 am    
   16   10   43 1     
   17   11   12 2     
   18   11   13 am    
   19   13   14 1     
   20   13   44 1     
   21   14   38 ar    
   22   14   15 ar    
   23   15   16 ar    
   24   15   45 1     
   25   16   17 ar    
   26   16   46 1     
   27   17   18 1     
   28   17   37 ar    
   29   18   19 1     
   30   18   47 1     
   31   19   36 ar    
   32   19   20 ar    
   33   20   21 ar    
   34   21   22 ar    
   35   21   48 1     
   36   22   23 ar    
   37   22   49 1     
   38   23   24 1     
   39   23   36 ar    
   40   24   25 1     
   41   24   50 1     
   42   25   30 2     
   43   25   26 1     
   44   26   27 2     
   45   26   51 1     
   46   27   28 1     
   47   27   31 1     
   48   28   29 1     
   49   28   30 1     
   50   31   35 1     
   51   31   32 1     
   52   31   52 1     
   53   32   33 1     
   54   32   53 1     
   55   32   54 1     
   56   33   34 1     
   57   33   55 1     
   58   33   56 1     
   59   34   35 1     
   60   34   57 1     
   61   34   58 1     
   62   35   59 1     
   63   35   60 1     
   64   37   38 ar    
   65   37   61 1     
   66   38   62 1     
   67   39   63 1     
@<TRIPOS>SUBSTRUCTURE
      1 ****           1
@<TRIPOS>SET
DONOR_HYDROGENS      STATIC     ATOMS    <user>   **** ""
5 43 44 47 50 29
ATOM$RED        STATIC     ATOMS    COLORGROUP SYSTEM
5 43 44 47 50 29
