#       Name:                CPX
#       Creating user name   gbret
#       Creation time:       Fri Sep  9 05:56:01 2016


#       File generated by GOLD software.
#

@<TRIPOS>MOLECULE
CPX
    70    73     1
SMALL
NO_CHARGES


@<TRIPOS>ATOM
      1 C1           1.8236   2.5299  -3.1104 C.3            1 <1>                0.0000
      2 C2           1.8998   1.0297  -2.8197 C.3            1 <1>                0.0000
      3 C3           3.3565   0.6311  -2.5746 C.3            1 <1>                0.0000
      4 C4           1.0670   0.7079  -1.5773 C.3            1 <1>                0.0000
      5 N5          -0.3462   0.9786  -1.8530 N.am           1 <1>                0.0000
      6 C6          -0.8359   2.2249  -1.7001 C.2            1 <1>                0.0000
      7 O7          -0.1050   3.1246  -1.3332 O.2            1 <1>                0.0000
      8 N8          -2.1360   2.4738  -1.9538 N.am           1 <1>                0.0000
      9 C9          -2.6684   3.8285  -1.7876 C.3            1 <1>                0.0000
     10 C10         -2.4847   4.6322  -3.0915 C.3            1 <1>                0.0000
     11 C11         -3.8405   4.4809  -3.8250 C.3            1 <1>                0.0000
     12 C12         -4.8652   4.5408  -2.6651 C.3            1 <1>                0.0000
     13 C13         -4.1819   3.7704  -1.5165 C.3            1 <1>                0.0000
     14 C14          1.2395  -0.7458  -1.2195 C.2            1 <1>                0.0000
     15 O15          0.9956  -1.6052  -2.0397 O.2            1 <1>                0.0000
     16 N16          1.6649  -1.0908   0.0120 N.am           1 <1>                0.0000
     17 C17          2.1434  -0.1579   1.0484 C.3            1 <1>                0.0000
     18 C18          3.0551  -1.0142   1.9623 C.3            1 <1>                0.0000
     19 C19          2.2989  -2.3690   1.9753 C.3            1 <1>                0.0000
     20 N20          1.2185  -2.3500   2.9646 N.am           1 <1>                0.0000
     21 C21          1.4916  -2.5746   4.2651 C.2            1 <1>                0.0000
     22 O22          2.6317  -2.7926   4.6165 O.2            1 <1>                0.0000
     23 C23          0.3802  -2.5551   5.2827 C.3            1 <1>                0.0000
     24 C24          0.0030  -3.8830   5.9425 C.3            1 <1>                0.0000
     25 C25          0.7545  -2.8173   6.7428 C.3            1 <1>                0.0000
     26 C26          1.7225  -2.4592   0.5465 C.3            1 <1>                0.0000
     27 C27          0.3196  -3.0683   0.5888 C.3            1 <1>                0.0000
     28 C28         -0.7548  -2.1043   1.1193 C.3            1 <1>                0.0000
     29 C29         -0.9428  -1.6390  -0.3343 C.3            1 <1>                0.0000
     30 C30         -0.4146  -3.0186  -0.7615 C.3            1 <1>                0.0000
     31 C31          0.2906  -4.4260   1.2421 C.2            1 <1>                0.0000
     32 O32         -0.3821  -4.6073   2.2284 O.2            1 <1>                0.0000
     33 H33          2.4169   2.7591  -3.9956 H              1 <1>                0.0000
     34 H34          0.7858   2.8139  -3.2850 H              1 <1>                0.0000
     35 H35          2.2137   3.0855  -2.2576 H              1 <1>                0.0000
     36 H36          1.5096   0.4741  -3.6725 H              1 <1>                0.0000
     37 H37          3.7734   1.2492  -1.7795 H              1 <1>                0.0000
     38 H38          3.4017  -0.4177  -2.2811 H              1 <1>                0.0000
     39 H39          3.9320   0.7778  -3.4886 H              1 <1>                0.0000
     40 H40          1.4003   1.3288  -0.7457 H              1 <1>                0.0000
     41 H41         -0.9293   0.2608  -2.1457 H              1 <1>                0.0000
     42 H42         -2.7191   1.7561  -2.2465 H              1 <1>                0.0000
     43 H43         -2.1605   4.3305  -0.9640 H              1 <1>                0.0000
     44 H44         -2.2864   5.6806  -2.8687 H              1 <1>                0.0000
     45 H45         -1.6779   4.2091  -3.6899 H              1 <1>                0.0000
     46 H46         -3.9968   5.3047  -4.5215 H              1 <1>                0.0000
     47 H47         -3.8960   3.5221  -4.3404 H              1 <1>                0.0000
     48 H48         -5.0513   5.5745  -2.3735 H              1 <1>                0.0000
     49 H49         -5.7957   4.0511  -2.9524 H              1 <1>                0.0000
     50 H50         -4.5204   2.7343  -1.5086 H              1 <1>                0.0000
     51 H51         -4.4087   4.2450  -0.5618 H              1 <1>                0.0000
     52 H52          2.7144   0.6524   0.5950 H              1 <1>                0.0000
     53 H53          1.3033   0.2408   1.6170 H              1 <1>                0.0000
     54 H54          4.0489  -1.1257   1.5287 H              1 <1>                0.0000
     55 H55          3.1132  -0.5896   2.9645 H              1 <1>                0.0000
     56 H56          2.9857  -3.1922   2.1722 H              1 <1>                0.0000
     57 H57          0.3066  -2.1757   2.6835 H              1 <1>                0.0000
     58 H58         -0.4222  -1.8433   5.0889 H              1 <1>                0.0000
     59 H59         -1.0477  -4.0451   6.1828 H              1 <1>                0.0000
     60 H60          0.5588  -4.7707   5.6406 H              1 <1>                0.0000
     61 H61          1.8047  -3.0040   6.9674 H              1 <1>                0.0000
     62 H62          0.1982  -2.2783   7.5096 H              1 <1>                0.0000
     63 H63          2.3749  -3.0689  -0.0786 H              1 <1>                0.0000
     64 H64         -1.6281  -2.6087   1.5327 H              1 <1>                0.0000
     65 H65         -0.3603  -1.3306   1.7779 H              1 <1>                0.0000
     66 H66         -1.9842  -1.4668  -0.6064 H              1 <1>                0.0000
     67 H67         -0.2885  -0.8143  -0.6168 H              1 <1>                0.0000
     68 H68          0.2545  -2.9829  -1.6212 H              1 <1>                0.0000
     69 H69         -1.1949  -3.7729  -0.8622 H              1 <1>                0.0000
     70 H70          0.8715  -5.2370   0.8282 H              1 <1>                0.0000
@<TRIPOS>BOND
    1    1    2 1     
    2    1   33 1     
    3    1   34 1     
    4    1   35 1     
    5    2    3 1     
    6    2    4 1     
    7    2   36 1     
    8    3   37 1     
    9    3   38 1     
   10    3   39 1     
   11    4    5 1     
   12    4   14 1     
   13    4   40 1     
   14    5    6 am    
   15    5   41 1     
   16    6    7 2     
   17    6    8 am    
   18    8    9 1     
   19    8   42 1     
   20    9   13 1     
   21    9   10 1     
   22    9   43 1     
   23   10   11 1     
   24   10   44 1     
   25   10   45 1     
   26   11   12 1     
   27   11   46 1     
   28   11   47 1     
   29   12   13 1     
   30   12   48 1     
   31   12   49 1     
   32   13   50 1     
   33   13   51 1     
   34   14   15 2     
   35   14   16 am    
   36   16   26 1     
   37   16   17 1     
   38   17   18 1     
   39   17   52 1     
   40   17   53 1     
   41   18   19 1     
   42   18   54 1     
   43   18   55 1     
   44   19   20 1     
   45   19   26 1     
   46   19   56 1     
   47   20   21 am    
   48   20   57 1     
   49   21   22 2     
   50   21   23 1     
   51   23   25 1     
   52   23   24 1     
   53   23   58 1     
   54   24   25 1     
   55   24   59 1     
   56   24   60 1     
   57   25   61 1     
   58   25   62 1     
   59   26   27 1     
   60   26   63 1     
   61   27   30 1     
   62   27   28 1     
   63   27   31 1     
   64   28   29 1     
   65   28   64 1     
   66   28   65 1     
   67   29   30 1     
   68   29   66 1     
   69   29   67 1     
   70   30   68 1     
   71   30   69 1     
   72   31   32 2     
   73   31   70 1     
@<TRIPOS>SUBSTRUCTURE
      1 ****           1
@<TRIPOS>SET
DONOR_HYDROGENS      STATIC     ATOMS    <user>   **** ""
3 41 42 57
ATOM$RED        STATIC     ATOMS    COLORGROUP SYSTEM
3 41 42 57
