#       Name:                CRE
#       Creating user name   gbret
#       Creation time:       Fri Sep  9 05:58:09 2016


#       File generated by GOLD software.
#

@<TRIPOS>MOLECULE
CRE
    39    39     1
SMALL
NO_CHARGES


@<TRIPOS>ATOM
      1 C1           3.1685  -1.8204  -0.5848 C.3            1 <1>                0.0000
      2 C2           1.8802  -1.0442  -0.4915 C.2            1 <1>                0.0000
      3 C3           1.8996   0.2650  -0.5353 C.2            1 <1>                0.0000
      4 C4           0.5744  -1.7712  -0.3483 C.3            1 <1>                0.0000
      5 C5          -0.0622  -1.5374   1.0152 C.3            1 <1>                0.0000
      6 C6           0.1515  -0.1145   1.5146 C.3            1 <1>                0.0000
      7 C7          -1.0854   0.3668   2.2287 C.2            1 <1>                0.0000
      8 C8          -1.0845   0.4474   3.7341 C.3            1 <1>                0.0000
      9 C9          -2.1538   0.7150   1.5658 C.2            1 <1>                0.0000
     10 C10         -2.2031   0.6487   0.0588 C.3            1 <1>                0.0000
     11 C11         -1.2163   1.6304  -0.5435 C.3            1 <1>                0.0000
     12 C12         -0.4513   1.1238  -1.7161 C.2            1 <1>                0.0000
     13 C13          0.0264   2.2066  -2.6855 C.3            1 <1>                0.0000
     14 C14         -0.1183  -0.0672  -2.0632 C.2            1 <1>                0.0000
     15 C15         -0.3905  -1.4007  -1.4674 C.3            1 <1>                0.0000
     16 H16          3.9936  -1.1337  -0.7735 H              1 <1>                0.0000
     17 H17          3.3428  -2.3491   0.3523 H              1 <1>                0.0000
     18 H18          3.1008  -2.5400  -1.4008 H              1 <1>                0.0000
     19 H19          0.9725   0.8180  -0.5688 H              1 <1>                0.0000
     20 H20          2.8427   0.7912  -0.5378 H              1 <1>                0.0000
     21 H21          0.7869  -2.8541  -0.4369 H              1 <1>                0.0000
     22 H22         -1.1360  -1.7424   0.9545 H              1 <1>                0.0000
     23 H23          0.3707  -2.2385   1.7384 H              1 <1>                0.0000
     24 H24          0.9877  -0.0997   2.2199 H              1 <1>                0.0000
     25 H25          0.3661   0.5635   0.6955 H              1 <1>                0.0000
     26 H26         -0.7384   1.4331   4.0450 H              1 <1>                0.0000
     27 H27         -2.0953   0.2829   4.1073 H              1 <1>                0.0000
     28 H28         -0.4193  -0.3156   4.1385 H              1 <1>                0.0000
     29 H29         -3.0249   1.0595   2.1049 H              1 <1>                0.0000
     30 H30         -2.0007  -0.3638  -0.2533 H              1 <1>                0.0000
     31 H31         -3.2177   0.9166  -0.2621 H              1 <1>                0.0000
     32 H32         -1.7798   2.5251  -0.8654 H              1 <1>                0.0000
     33 H33         -0.5218   1.9781   0.2280 H              1 <1>                0.0000
     34 H34          1.0146   2.5539  -2.3839 H              1 <1>                0.0000
     35 H35          0.0779   1.7948  -3.6934 H              1 <1>                0.0000
     36 H36         -0.6730   3.0425  -2.6698 H              1 <1>                0.0000
     37 H37          0.4848  -0.0940  -2.9941 H              1 <1>                0.0000
     38 H38         -0.2495  -2.1560  -2.2734 H              1 <1>                0.0000
     39 H39         -1.4189  -1.5205  -1.1538 H              1 <1>                0.0000
@<TRIPOS>BOND
    1    1    2 1     
    2    1   16 1     
    3    1   17 1     
    4    1   18 1     
    5    2    3 2     
    6    2    4 1     
    7    3   19 1     
    8    3   20 1     
    9    4   15 1     
   10    4    5 1     
   11    4   21 1     
   12    5    6 1     
   13    5   22 1     
   14    5   23 1     
   15    6    7 1     
   16    6   24 1     
   17    6   25 1     
   18    7    8 1     
   19    7    9 2     
   20    8   26 1     
   21    8   27 1     
   22    8   28 1     
   23    9   10 1     
   24    9   29 1     
   25   10   11 1     
   26   10   30 1     
   27   10   31 1     
   28   11   12 1     
   29   11   32 1     
   30   11   33 1     
   31   12   13 1     
   32   12   14 2     
   33   13   34 1     
   34   13   35 1     
   35   13   36 1     
   36   14   15 1     
   37   14   37 1     
   38   15   38 1     
   39   15   39 1     
@<TRIPOS>SUBSTRUCTURE
      1 ****           1
