#       Name:                CXP
#       Creating user name   gbret
#       Creation time:       Fri Sep  9 06:06:46 2016


#       File generated by GOLD software.
#

@<TRIPOS>MOLECULE
CXP
    26    26     1
SMALL
NO_CHARGES


@<TRIPOS>ATOM
      1 O1           3.8449  -1.7622   0.3814 O.co2          1 <1>                0.0000
      2 C2           3.8283  -0.5431   0.3881 C.2            1 <1>                0.0000
      3 O3           4.8758   0.0808   0.3815 O.co2          1 <1>                0.0000
      4 C4           2.5132   0.1926   0.3984 C.3            1 <1>                0.0000
      5 C5           1.3638  -0.8173   0.3983 C.3            1 <1>                0.0000
      6 C6           0.0286  -0.0704   0.4087 C.3            1 <1>                0.0000
      7 C7          -0.1251   0.7177  -0.8937 C.3            1 <1>                0.0000
      8 C8          -1.4603   1.4646  -0.8833 C.3            1 <1>                0.0000
      9 C9          -2.6064   0.4588  -0.7576 C.3            1 <1>                0.0000
     10 C10         -2.4527  -0.3293   0.5448 C.3            1 <1>                0.0000
     11 C11         -1.1175  -1.0763   0.5344 C.3            1 <1>                0.0000
     12 H12          2.4511   0.8136   1.2920 H              1 <1>                0.0000
     13 H13          2.4427   0.8232  -0.4879 H              1 <1>                0.0000
     14 H14          1.4259  -1.4383  -0.4954 H              1 <1>                0.0000
     15 H15          1.4343  -1.4480   1.2846 H              1 <1>                0.0000
     16 H16          0.0033   0.6168   1.2544 H              1 <1>                0.0000
     17 H17          0.6914   1.4343  -0.9832 H              1 <1>                0.0000
     18 H18         -0.0998   0.0305  -1.7393 H              1 <1>                0.0000
     19 H19         -1.4857   2.1518  -0.0376 H              1 <1>                0.0000
     20 H20         -1.5698   2.0261  -1.8111 H              1 <1>                0.0000
     21 H21         -3.5576   0.9909  -0.7502 H              1 <1>                0.0000
     22 H22         -2.5811  -0.2285  -1.6033 H              1 <1>                0.0000
     23 H23         -2.4780   0.3579   1.3905 H              1 <1>                0.0000
     24 H24         -3.2692  -1.0459   0.6343 H              1 <1>                0.0000
     25 H25         -1.0921  -1.7635  -0.3113 H              1 <1>                0.0000
     26 H26         -1.0080  -1.6377   1.4622 H              1 <1>                0.0000
@<TRIPOS>BOND
    1    1    2 ar    
    2    2    3 ar    
    3    2    4 1     
    4    4    5 1     
    5    4   12 1     
    6    4   13 1     
    7    5    6 1     
    8    5   14 1     
    9    5   15 1     
   10    6   11 1     
   11    6    7 1     
   12    6   16 1     
   13    7    8 1     
   14    7   17 1     
   15    7   18 1     
   16    8    9 1     
   17    8   19 1     
   18    8   20 1     
   19    9   10 1     
   20    9   21 1     
   21    9   22 1     
   22   10   11 1     
   23   10   23 1     
   24   10   24 1     
   25   11   25 1     
   26   11   26 1     
@<TRIPOS>SUBSTRUCTURE
      1 ****           1
