#       Name:                D0M
#       Creating user name   gbret
#       Creation time:       Fri Sep  9 06:11:09 2016


#       File generated by GOLD software.
#

@<TRIPOS>MOLECULE
D0M
    20    19     1
SMALL
NO_CHARGES


@<TRIPOS>ATOM
      1 C1          -0.8508   2.0951   1.1044 C.3            1 <1>                0.0000
      2 C2          -0.8300   0.5652   1.0960 C.3            1 <1>                0.0000
      3 C3          -0.1139   0.0718  -0.1628 C.3            1 <1>                0.0000
      4 N4           1.2967   0.4793  -0.1152 N.4            1 <1>                0.0000
      5 H5           1.7689   0.1539  -0.9454 H              1 <1>                0.0000
      6 H6           1.3546   1.4856  -0.0679 H              1 <1>                0.0000
      7 H7           1.7353   0.0784   0.7002 H              1 <1>                0.0000
      8 C8          -0.2018  -1.4540  -0.2346 C.3            1 <1>                0.0000
      9 C9           0.4041  -1.9382  -1.5534 C.3            1 <1>                0.0000
     10 H10          0.1718   2.4724   1.0967 H              1 <1>                0.0000
     11 H11         -1.3780   2.4561   0.2214 H              1 <1>                0.0000
     12 H12         -1.3610   2.4466   2.0012 H              1 <1>                0.0000
     13 H13         -0.3028   0.2042   1.9791 H              1 <1>                0.0000
     14 H14         -1.8526   0.1879   1.1038 H              1 <1>                0.0000
     15 H15         -0.5877   0.5049  -1.0437 H              1 <1>                0.0000
     16 H16          0.3485  -1.8893   0.5996 H              1 <1>                0.0000
     17 H17         -1.2463  -1.7607  -0.1804 H              1 <1>                0.0000
     18 H18         -0.1461  -1.5029  -2.3876 H              1 <1>                0.0000
     19 H19          1.4487  -1.6315  -1.6076 H              1 <1>                0.0000
     20 H20          0.3415  -3.0252  -1.6046 H              1 <1>                0.0000
@<TRIPOS>BOND
    1    1    2 1     
    2    1   10 1     
    3    1   11 1     
    4    1   12 1     
    5    2    3 1     
    6    2   13 1     
    7    2   14 1     
    8    3    4 1     
    9    3    8 1     
   10    3   15 1     
   11    4    5 1     
   12    4    6 1     
   13    4    7 1     
   14    8    9 1     
   15    8   16 1     
   16    8   17 1     
   17    9   18 1     
   18    9   19 1     
   19    9   20 1     
@<TRIPOS>SUBSTRUCTURE
      1 ****           1
@<TRIPOS>SET
DONOR_HYDROGENS      STATIC     ATOMS    <user>   **** ""
3 5 6 7
ATOM$RED        STATIC     ATOMS    COLORGROUP SYSTEM
3 5 6 7
