#       Name:                D1G
#       Creating user name   gbret
#       Creation time:       Fri Sep  9 06:12:27 2016


#       File generated by GOLD software.
#

@<TRIPOS>MOLECULE
D1G
    30    31     1
SMALL
NO_CHARGES


@<TRIPOS>ATOM
      1 C1           0.8053   4.1646   0.8472 C.3            1 <1>                0.0000
      2 N2           0.8252   2.6957   0.8391 N.4            1 <1>                0.0000
      3 H3           1.2975   2.3703   0.0090 H              1 <1>                0.0000
      4 C4           1.5357   2.2091   2.0292 C.3            1 <1>                0.0000
      5 C5          -0.5530   2.1873   0.8495 C.3            1 <1>                0.0000
      6 C6          -0.5356   0.6862   0.7175 C.2            1 <1>                0.0000
      7 C7          -0.4885  -0.1917   1.7385 C.2            1 <1>                0.0000
      8 C8          -0.4887  -1.4827   1.1732 C.2            1 <1>                0.0000
      9 C9          -0.5365  -1.3195  -0.1757 C.2            1 <1>                0.0000
     10 O10         -0.5703   0.0012  -0.4373 O.3            1 <1>                0.0000
     11 C11         -0.5545  -2.4034  -1.1803 C.ar           1 <1>                0.0000
     12 C12         -0.5990  -2.1059  -2.5477 C.ar           1 <1>                0.0000
     13 C13         -0.6143  -3.1570  -3.4472 C.ar           1 <1>                0.0000
     14 C14         -0.5854  -4.4559  -2.9716 C.ar           1 <1>                0.0000
     15 N15         -0.5436  -4.7065  -1.6773 N.ar           1 <1>                0.0000
     16 C16         -0.5217  -3.7406  -0.7822 C.ar           1 <1>                0.0000
     17 H17          1.8278   4.5419   0.8395 H              1 <1>                0.0000
     18 H18          0.2781   4.5257  -0.0359 H              1 <1>                0.0000
     19 H19          0.2951   4.5161   1.7440 H              1 <1>                0.0000
     20 H20          1.0255   2.5606   2.9260 H              1 <1>                0.0000
     21 H21          1.5505   1.1192   2.0232 H              1 <1>                0.0000
     22 H22          2.5583   2.5864   2.0215 H              1 <1>                0.0000
     23 H23         -1.0353   2.4640   1.7871 H              1 <1>                0.0000
     24 H24         -1.1059   2.6190   0.0153 H              1 <1>                0.0000
     25 H25         -0.4563   0.0484   2.7909 H              1 <1>                0.0000
     26 H26         -0.4565  -2.4204   1.7081 H              1 <1>                0.0000
     27 H27         -0.6212  -1.0823  -2.8915 H              1 <1>                0.0000
     28 H28         -0.6488  -2.9656  -4.5096 H              1 <1>                0.0000
     29 H29         -0.5976  -5.2782  -3.6717 H              1 <1>                0.0000
     30 H30         -0.4875  -3.9855   0.2691 H              1 <1>                0.0000
@<TRIPOS>BOND
    1    1    2 1     
    2    1   17 1     
    3    1   18 1     
    4    1   19 1     
    5    2    3 1     
    6    2    4 1     
    7    2    5 1     
    8    4   20 1     
    9    4   21 1     
   10    4   22 1     
   11    5    6 1     
   12    5   23 1     
   13    5   24 1     
   14    6   10 1     
   15    6    7 2     
   16    7    8 1     
   17    7   25 1     
   18    8    9 2     
   19    8   26 1     
   20    9   10 1     
   21    9   11 1     
   22   11   16 ar    
   23   11   12 ar    
   24   12   13 ar    
   25   12   27 1     
   26   13   14 ar    
   27   13   28 1     
   28   14   15 ar    
   29   14   29 1     
   30   15   16 ar    
   31   16   30 1     
@<TRIPOS>SUBSTRUCTURE
      1 ****           1
@<TRIPOS>SET
DONOR_HYDROGENS      STATIC     ATOMS    <user>   **** ""
1 3
ATOM$RED        STATIC     ATOMS    COLORGROUP SYSTEM
1 3
