#       Name:                D1X
#       Creating user name   gbret
#       Creation time:       Fri Sep  9 06:13:30 2016


#       File generated by GOLD software.
#

@<TRIPOS>MOLECULE
D1X
    15    15     1
SMALL
NO_CHARGES


@<TRIPOS>ATOM
      1 O1           2.0506  -2.4995  -0.0235 O.co2          1 <1>                0.0000
      2 C2           2.0340  -1.2768  -0.0168 C.2            1 <1>                0.0000
      3 O3           3.0845  -0.6510  -0.0234 O.co2          1 <1>                0.0000
      4 C4           0.7471  -0.5569  -0.0067 C.2            1 <1>                0.0000
      5 C5          -0.4217  -1.2251   0.0008 C.2            1 <1>                0.0000
      6 C6          -1.7000  -0.4920   0.0102 C.2            1 <1>                0.0000
      7 O7          -2.7360  -1.1260   0.0164 O.2            1 <1>                0.0000
      8 N8          -1.7646   0.8466   0.0126 N.am           1 <1>                0.0000
      9 C9          -0.6606   1.6170   0.0057 C.2            1 <1>                0.0000
     10 O10         -0.7556   2.8256   0.0077 O.2            1 <1>                0.0000
     11 C11          0.6995   0.9561   0.0017 C.3            1 <1>                0.0000
     12 H12         -0.4225  -2.3051  -0.0005 H              1 <1>                0.0000
     13 H13         -2.6352   1.2744   0.0193 H              1 <1>                0.0000
     14 H14          1.2438   1.3088   0.8777 H              1 <1>                0.0000
     15 H15          1.2362   1.3039  -0.8809 H              1 <1>                0.0000
@<TRIPOS>BOND
    1    1    2 ar    
    2    2    3 ar    
    3    2    4 1     
    4    4   11 1     
    5    4    5 2     
    6    5    6 1     
    7    5   12 1     
    8    6    7 2     
    9    6    8 am    
   10    8    9 am    
   11    8   13 1     
   12    9   10 2     
   13    9   11 1     
   14   11   14 1     
   15   11   15 1     
@<TRIPOS>SUBSTRUCTURE
      1 ****           1
@<TRIPOS>SET
DONOR_HYDROGENS      STATIC     ATOMS    <user>   **** ""
1 13
ATOM$RED        STATIC     ATOMS    COLORGROUP SYSTEM
1 13
