#       Name:                D93
#       Creating user name   gbret
#       Creation time:       Fri Sep  9 06:21:41 2016


#       File generated by GOLD software.
#

@<TRIPOS>MOLECULE
D93
    59    63     1
SMALL
NO_CHARGES


@<TRIPOS>ATOM
      1 C1          -1.5934   7.5525  -1.3634 C.3            1 <1>                0.0000
      2 N2          -1.5735   6.0836  -1.3715 N.4            1 <1>                0.0000
      3 H3          -2.5203   5.7350  -1.3643 H              1 <1>                0.0000
      4 C4          -0.8647   5.5978  -0.1802 C.3            1 <1>                0.0000
      5 C5          -1.1221   4.0983  -0.0037 C.3            1 <1>                0.0000
      6 C6          -0.8114   3.4087  -1.3273 C.2            1 <1>                0.0000
      7 N7          -0.6221   2.1161  -1.4609 N.2            1 <1>                0.0000
      8 C8          -0.3630   1.6835  -2.6612 C.2            1 <1>                0.0000
      9 S9          -0.3514   3.0502  -3.7703 S.3            1 <1>                0.0000
     10 C10         -0.7077   4.1124  -2.4824 C.2            1 <1>                0.0000
     11 C11         -0.8868   5.6102  -2.5827 C.3            1 <1>                0.0000
     12 C12         -0.1192   0.2790  -3.0308 C.2            1 <1>                0.0000
     13 O13          0.1149  -0.0134  -4.1879 O.2            1 <1>                0.0000
     14 N14         -0.1556  -0.6823  -2.0869 N.am           1 <1>                0.0000
     15 C15          0.0869  -2.0795  -2.4546 C.3            1 <1>                0.0000
     16 C16          1.5926  -2.3505  -2.4639 C.3            1 <1>                0.0000
     17 C17          1.8459  -3.8097  -2.8479 C.3            1 <1>                0.0000
     18 C18          1.1684  -4.7298  -1.8304 C.3            1 <1>                0.0000
     19 C19         -0.3374  -4.4588  -1.8211 C.3            1 <1>                0.0000
     20 C20         -0.5907  -2.9996  -1.4371 C.3            1 <1>                0.0000
     21 N21         -0.0401  -2.7429  -0.1040 N.am           1 <1>                0.0000
     22 C22         -0.7715  -3.0235   0.9927 C.2            1 <1>                0.0000
     23 O23         -1.8889  -3.4899   0.8756 O.2            1 <1>                0.0000
     24 C24         -0.2188  -2.7657   2.3308 C.2            1 <1>                0.0000
     25 C25         -0.8546  -3.0113   3.5063 C.2            1 <1>                0.0000
     26 C26          0.0146  -2.6258   4.5554 C.ar           1 <1>                0.0000
     27 C27         -0.0955  -2.6452   5.9520 C.ar           1 <1>                0.0000
     28 C28          0.9389  -2.1946   6.7209 C.ar           1 <1>                0.0000
     29 Cl29         0.7993  -2.2200   8.4511 Cl             1 <1>                0.0000
     30 C30          2.1032  -1.7161   6.1305 C.ar           1 <1>                0.0000
     31 C31          2.2344  -1.6873   4.7605 C.ar           1 <1>                0.0000
     32 C32          1.1930  -2.1410   3.9554 C.ar           1 <1>                0.0000
     33 N33          1.0317  -2.2409   2.5933 N.pl3          1 <1>                0.0000
     34 H34          1.6876  -1.9838   1.9266 H              1 <1>                0.0000
     35 H35         -0.5709   7.9298  -1.3711 H              1 <1>                0.0000
     36 H36         -2.1206   7.9136  -2.2465 H              1 <1>                0.0000
     37 H37         -2.1036   7.9040  -0.4666 H              1 <1>                0.0000
     38 H38          0.2049   5.7709  -0.2986 H              1 <1>                0.0000
     39 H39         -1.2232   6.1334   0.6989 H              1 <1>                0.0000
     40 H40         -0.4745   3.7028   0.7788 H              1 <1>                0.0000
     41 H41         -2.1661   3.9323   0.2621 H              1 <1>                0.0000
     42 H42         -1.4872   5.8488  -3.4606 H              1 <1>                0.0000
     43 H43          0.0884   6.0907  -2.6618 H              1 <1>                0.0000
     44 H44         -0.3424  -0.4490  -1.1641 H              1 <1>                0.0000
     45 H45         -0.3228  -2.2705  -3.4465 H              1 <1>                0.0000
     46 H46          2.0753  -1.6950  -3.1887 H              1 <1>                0.0000
     47 H47          2.0023  -2.1594  -1.4720 H              1 <1>                0.0000
     48 H48          1.4362  -4.0007  -3.8397 H              1 <1>                0.0000
     49 H49          2.9186  -4.0027  -2.8545 H              1 <1>                0.0000
     50 H50          1.3488  -5.7693  -2.1040 H              1 <1>                0.0000
     51 H51          1.5780  -4.5388  -0.8385 H              1 <1>                0.0000
     52 H52         -0.7471  -4.6498  -2.8130 H              1 <1>                0.0000
     53 H53         -0.8201  -5.1143  -1.0963 H              1 <1>                0.0000
     54 H54         -1.6634  -2.8066  -1.4305 H              1 <1>                0.0000
     55 H55          0.8509  -2.3709  -0.0106 H              1 <1>                0.0000
     56 H56         -1.8453  -3.4259   3.6200 H              1 <1>                0.0000
     57 H57         -0.9962  -3.0152   6.4191 H              1 <1>                0.0000
     58 H58          2.9123  -1.3632   6.7528 H              1 <1>                0.0000
     59 H59          3.1426  -1.3133   4.3113 H              1 <1>                0.0000
@<TRIPOS>BOND
    1    1    2 1     
    2    1   35 1     
    3    1   36 1     
    4    1   37 1     
    5    2    3 1     
    6    2   11 1     
    7    2    4 1     
    8    4    5 1     
    9    4   38 1     
   10    4   39 1     
   11    5    6 1     
   12    5   40 1     
   13    5   41 1     
   14    6   10 2     
   15    6    7 1     
   16    7    8 2     
   17    8    9 1     
   18    8   12 1     
   19    9   10 1     
   20   10   11 1     
   21   11   42 1     
   22   11   43 1     
   23   12   13 2     
   24   12   14 am    
   25   14   15 1     
   26   14   44 1     
   27   15   20 1     
   28   15   16 1     
   29   15   45 1     
   30   16   17 1     
   31   16   46 1     
   32   16   47 1     
   33   17   18 1     
   34   17   48 1     
   35   17   49 1     
   36   18   19 1     
   37   18   50 1     
   38   18   51 1     
   39   19   20 1     
   40   19   52 1     
   41   19   53 1     
   42   20   21 1     
   43   20   54 1     
   44   21   22 am    
   45   21   55 1     
   46   22   23 2     
   47   22   24 1     
   48   24   33 1     
   49   24   25 2     
   50   25   26 1     
   51   25   56 1     
   52   26   32 ar    
   53   26   27 ar    
   54   27   28 ar    
   55   27   57 1     
   56   28   29 1     
   57   28   30 ar    
   58   30   31 ar    
   59   30   58 1     
   60   31   32 ar    
   61   31   59 1     
   62   32   33 1     
   63   33   34 1     
@<TRIPOS>SUBSTRUCTURE
      1 ****           1
@<TRIPOS>SET
DONOR_HYDROGENS      STATIC     ATOMS    <user>   **** ""
4 3 44 55 34
ATOM$RED        STATIC     ATOMS    COLORGROUP SYSTEM
4 3 44 55 34
