#       Name:                DHO
#       Creating user name   gbret
#       Creation time:       Fri Sep  9 06:38:08 2016


#       File generated by GOLD software.
#

@<TRIPOS>MOLECULE
DHO
    67    70     1
SMALL
NO_CHARGES


@<TRIPOS>ATOM
      1 C1          -2.2337   4.2264  -2.4686 C.3            1 <1>                0.0000
      2 C2          -1.7280   2.8112  -2.1814 C.3            1 <1>                0.0000
      3 C3          -0.8635   2.3318  -3.3492 C.3            1 <1>                0.0000
      4 C4          -1.6320   2.5112  -4.6600 C.3            1 <1>                0.0000
      5 C5          -0.7805   2.0390  -5.8102 C.2            1 <1>                0.0000
      6 O6           0.3374   1.5997  -5.6010 O.co2          1 <1>                0.0000
      7 O7          -1.2096   2.0963  -6.9500 O.co2          1 <1>                0.0000
      8 C8          -0.8940   2.8182  -0.8987 C.3            1 <1>                0.0000
      9 C9          -1.7542   3.2950   0.2982 C.3            1 <1>                0.0000
     10 C10         -1.7110   2.1537   1.3508 C.3            1 <1>                0.0000
     11 C11         -0.4093   1.4210   1.0085 C.3            1 <1>                0.0000
     12 C12         -0.3199  -0.0217   1.4696 C.3            1 <1>                0.0000
     13 C13         -0.3480  -0.0943   2.9970 C.3            1 <1>                0.0000
     14 C14         -0.2033  -1.5515   3.4408 C.3            1 <1>                0.0000
     15 C15          1.1253  -2.1122   2.9299 C.3            1 <1>                0.0000
     16 C16          1.2691  -3.5693   3.3734 C.3            1 <1>                0.0000
     17 C17          2.5990  -4.1285   2.8637 C.3            1 <1>                0.0000
     18 O18          2.7340  -5.4892   3.2787 O.3            1 <1>                0.0000
     19 C19          2.6296  -4.0557   1.3357 C.3            1 <1>                0.0000
     20 C20          2.4865  -2.5987   0.8917 C.3            1 <1>                0.0000
     21 C21          1.1577  -2.0370   1.4018 C.3            1 <1>                0.0000
     22 C22          0.0018  -2.8572   0.8256 C.3            1 <1>                0.0000
     23 C23          1.0196  -0.5786   0.9630 C.3            1 <1>                0.0000
     24 C24          1.1310  -0.4766  -0.5542 C.3            1 <1>                0.0000
     25 C25          0.9070   0.9667  -1.0364 C.3            1 <1>                0.0000
     26 O26          0.9461   1.0138  -2.4640 O.3            1 <1>                0.0000
     27 C27         -0.4595   1.4001  -0.5433 C.3            1 <1>                0.0000
     28 C28         -1.5193   0.4014  -1.0126 C.3            1 <1>                0.0000
     29 H29         -1.3840   4.8980  -2.5913 H              1 <1>                0.0000
     30 H30         -2.8279   4.2215  -3.3824 H              1 <1>                0.0000
     31 H31         -2.8496   4.5679  -1.6366 H              1 <1>                0.0000
     32 H32         -2.5777   2.1397  -2.0587 H              1 <1>                0.0000
     33 H33          0.0561   2.9160  -3.3843 H              1 <1>                0.0000
     34 H34         -0.6197   1.2783  -3.2123 H              1 <1>                0.0000
     35 H35         -2.5516   1.9271  -4.6249 H              1 <1>                0.0000
     36 H36         -1.8759   3.5647  -4.7969 H              1 <1>                0.0000
     37 H37         -0.0223   3.4613  -1.0191 H              1 <1>                0.0000
     38 H38         -1.3350   4.2087   0.7196 H              1 <1>                0.0000
     39 H39         -2.7809   3.4679  -0.0243 H              1 <1>                0.0000
     40 H40         -1.6699   2.5617   2.3607 H              1 <1>                0.0000
     41 H41         -2.5685   1.4906   1.2362 H              1 <1>                0.0000
     42 H42          0.4510   1.9941   1.3542 H              1 <1>                0.0000
     43 H43         -1.1424  -0.5962   1.0436 H              1 <1>                0.0000
     44 H44          0.4752   0.4929   3.4039 H              1 <1>                0.0000
     45 H45         -1.2943   0.3045   3.3624 H              1 <1>                0.0000
     46 H46         -0.2248  -1.6034   4.5293 H              1 <1>                0.0000
     47 H47         -1.0261  -2.1387   3.0331 H              1 <1>                0.0000
     48 H48          1.9481  -1.5264   3.3397 H              1 <1>                0.0000
     49 H49          1.2461  -3.6217   4.4619 H              1 <1>                0.0000
     50 H50          0.4471  -4.1565   2.9639 H              1 <1>                0.0000
     51 H51          3.4209  -3.5406   3.2723 H              1 <1>                0.0000
     52 H52          3.5561  -5.9087   2.9901 H              1 <1>                0.0000
     53 H53          3.5763  -4.4551   0.9718 H              1 <1>                0.0000
     54 H54          1.8068  -4.6425   0.9274 H              1 <1>                0.0000
     55 H55          3.3094  -2.0121   1.3001 H              1 <1>                0.0000
     56 H56          2.5088  -2.5469  -0.1968 H              1 <1>                0.0000
     57 H57          0.1014  -3.8962   1.1398 H              1 <1>                0.0000
     58 H58         -0.9445  -2.4568   1.1892 H              1 <1>                0.0000
     59 H59          0.0250  -2.8030  -0.2628 H              1 <1>                0.0000
     60 H60          1.8311  -0.0000   1.4044 H              1 <1>                0.0000
     61 H61          2.1236  -0.8055  -0.8620 H              1 <1>                0.0000
     62 H62          0.3838  -1.1254  -1.0112 H              1 <1>                0.0000
     63 H63          1.6759   1.6193  -0.6228 H              1 <1>                0.0000
     64 H64          1.7840   0.7167  -2.8446 H              1 <1>                0.0000
     65 H65         -1.2640  -0.5953  -0.6527 H              1 <1>                0.0000
     66 H66         -2.4927   0.6921  -0.6176 H              1 <1>                0.0000
     67 H67         -1.5561   0.3959  -2.1020 H              1 <1>                0.0000
@<TRIPOS>BOND
    1    1    2 1     
    2    1   29 1     
    3    1   30 1     
    4    1   31 1     
    5    2    3 1     
    6    2    8 1     
    7    2   32 1     
    8    3    4 1     
    9    3   33 1     
   10    3   34 1     
   11    4    5 1     
   12    4   35 1     
   13    4   36 1     
   14    5    6 ar    
   15    5    7 ar    
   16    8   27 1     
   17    8    9 1     
   18    8   37 1     
   19    9   10 1     
   20    9   38 1     
   21    9   39 1     
   22   10   11 1     
   23   10   40 1     
   24   10   41 1     
   25   11   27 1     
   26   11   12 1     
   27   11   42 1     
   28   12   23 1     
   29   12   13 1     
   30   12   43 1     
   31   13   14 1     
   32   13   44 1     
   33   13   45 1     
   34   14   15 1     
   35   14   46 1     
   36   14   47 1     
   37   15   21 1     
   38   15   16 1     
   39   15   48 1     
   40   16   17 1     
   41   16   49 1     
   42   16   50 1     
   43   17   18 1     
   44   17   19 1     
   45   17   51 1     
   46   18   52 1     
   47   19   20 1     
   48   19   53 1     
   49   19   54 1     
   50   20   21 1     
   51   20   55 1     
   52   20   56 1     
   53   21   22 1     
   54   21   23 1     
   55   22   57 1     
   56   22   58 1     
   57   22   59 1     
   58   23   24 1     
   59   23   60 1     
   60   24   25 1     
   61   24   61 1     
   62   24   62 1     
   63   25   26 1     
   64   25   27 1     
   65   25   63 1     
   66   26   64 1     
   67   27   28 1     
   68   28   65 1     
   69   28   66 1     
   70   28   67 1     
@<TRIPOS>SUBSTRUCTURE
      1 ****           1
@<TRIPOS>SET
DONOR_HYDROGENS      STATIC     ATOMS    <user>   **** ""
2 52 64
ATOM$RED        STATIC     ATOMS    COLORGROUP SYSTEM
2 52 64
