#       Name:                DLY
#       Creating user name   gbret
#       Creation time:       Fri Sep  9 06:43:15 2016


#       File generated by GOLD software.
#

@<TRIPOS>MOLECULE
DLY
    25    24     1
SMALL
NO_CHARGES


@<TRIPOS>ATOM
      1 N1           3.1782  -0.3915  -2.2405 N.4            1 <1>                0.0000
      2 H2           3.1919  -1.4004  -2.2461 H              1 <1>                0.0000
      3 H3           4.1248  -0.0422  -2.2477 H              1 <1>                0.0000
      4 H4           2.6902  -0.0572  -3.0580 H              1 <1>                0.0000
      5 C5           2.4906   0.0823  -1.0319 C.3            1 <1>                0.0000
      6 C6           1.0552  -0.4473  -1.0211 C.3            1 <1>                0.0000
      7 C7           0.3391   0.0461   0.2377 C.3            1 <1>                0.0000
      8 C8          -1.0963  -0.4835   0.2486 C.3            1 <1>                0.0000
      9 C9          -1.8124   0.0100   1.5074 C.3            1 <1>                0.0000
     10 N10         -1.9383   1.4727   1.4576 N.4            1 <1>                0.0000
     11 H11         -2.4707   1.7369   0.6423 H              1 <1>                0.0000
     12 H12         -2.4105   1.7981   2.2878 H              1 <1>                0.0000
     13 H13         -1.0199   1.8878   1.4086 H              1 <1>                0.0000
     14 C14         -3.1841  -0.6100   1.5807 C.2            1 <1>                0.0000
     15 O15         -3.3031  -1.8010   1.8129 O.co2          1 <1>                0.0000
     16 O16         -4.1747   0.0794   1.4077 O.co2          1 <1>                0.0000
     17 H17          3.0178  -0.2788  -0.1489 H              1 <1>                0.0000
     18 H18          2.4758   1.1722  -1.0259 H              1 <1>                0.0000
     19 H19          0.5280  -0.0862  -1.9041 H              1 <1>                0.0000
     20 H20          1.0700  -1.5372  -1.0271 H              1 <1>                0.0000
     21 H21          0.8663  -0.3150   1.1208 H              1 <1>                0.0000
     22 H22          0.3243   1.1360   0.2437 H              1 <1>                0.0000
     23 H23         -1.6235  -0.1224  -0.6345 H              1 <1>                0.0000
     24 H24         -1.0815  -1.5734   0.2426 H              1 <1>                0.0000
     25 H25         -1.2372  -0.2755   2.3882 H              1 <1>                0.0000
@<TRIPOS>BOND
    1    1    2 1     
    2    1    3 1     
    3    1    4 1     
    4    1    5 1     
    5    5    6 1     
    6    5   17 1     
    7    5   18 1     
    8    6    7 1     
    9    6   19 1     
   10    6   20 1     
   11    7    8 1     
   12    7   21 1     
   13    7   22 1     
   14    8    9 1     
   15    8   23 1     
   16    8   24 1     
   17    9   10 1     
   18    9   14 1     
   19    9   25 1     
   20   10   11 1     
   21   10   12 1     
   22   10   13 1     
   23   14   15 ar    
   24   14   16 ar    
@<TRIPOS>SUBSTRUCTURE
      1 ****           1
@<TRIPOS>SET
DONOR_HYDROGENS      STATIC     ATOMS    <user>   **** ""
6 2 3 4 11 12 13
ATOM$RED        STATIC     ATOMS    COLORGROUP SYSTEM
6 2 3 4 11 12 13
