#       Name:                DPE
#       Creating user name   gbret
#       Creation time:       Fri Sep  9 06:50:04 2016


#       File generated by GOLD software.
#

@<TRIPOS>MOLECULE
DPE
    42    41     1
SMALL
NO_CHARGES


@<TRIPOS>ATOM
      1 C1          -2.1232   6.6498   3.6384 C.3            1 <1>                0.0000
      2 C2          -2.1024   5.1199   3.6300 C.3            1 <1>                0.0000
      3 C3          -1.3863   4.6265   2.3712 C.3            1 <1>                0.0000
      4 C4          -1.3655   3.0967   2.3628 C.3            1 <1>                0.0000
      5 C5          -0.6494   2.6033   1.1040 C.3            1 <1>                0.0000
      6 C6          -0.6287   1.0734   1.0956 C.3            1 <1>                0.0000
      7 C7           0.0875   0.5800  -0.1632 C.3            1 <1>                0.0000
      8 C8           0.1082  -0.9498  -0.1716 C.3            1 <1>                0.0000
      9 C9           0.8244  -1.4433  -1.4304 C.3            1 <1>                0.0000
     10 C10          0.8451  -2.9731  -1.4388 C.3            1 <1>                0.0000
     11 C11          1.5613  -3.4665  -2.6977 C.3            1 <1>                0.0000
     12 P12          1.5860  -5.2893  -2.7077 P.3            1 <1>                0.0000
     13 O13          0.1975  -5.8016  -2.6972 O.2            1 <1>                0.0000
     14 O14          2.3396  -5.8085  -4.0323 O.3            1 <1>                0.0000
     15 C15          2.5228  -7.1939  -4.3310 C.3            1 <1>                0.0000
     16 H16         -1.1006   7.0271   3.6307 H              1 <1>                0.0000
     17 H17         -2.6504   7.0108   2.7554 H              1 <1>                0.0000
     18 H18         -2.6334   7.0013   4.5352 H              1 <1>                0.0000
     19 H19         -1.5752   4.7589   4.5131 H              1 <1>                0.0000
     20 H20         -3.1250   4.7426   3.6378 H              1 <1>                0.0000
     21 H21         -1.9135   4.9876   1.4882 H              1 <1>                0.0000
     22 H22         -0.3637   5.0038   2.3635 H              1 <1>                0.0000
     23 H23         -0.8384   2.7356   3.2459 H              1 <1>                0.0000
     24 H24         -2.3881   2.7194   2.3705 H              1 <1>                0.0000
     25 H25         -1.1766   2.9643   0.2209 H              1 <1>                0.0000
     26 H26          0.3732   2.9805   1.0963 H              1 <1>                0.0000
     27 H27         -0.1015   0.7123   1.9786 H              1 <1>                0.0000
     28 H28         -1.6512   0.6961   1.1033 H              1 <1>                0.0000
     29 H29         -0.4397   0.9411  -1.0463 H              1 <1>                0.0000
     30 H30          1.1101   0.9573  -0.1710 H              1 <1>                0.0000
     31 H31          0.6354  -1.3109   0.7114 H              1 <1>                0.0000
     32 H32         -0.9144  -1.3271  -0.1639 H              1 <1>                0.0000
     33 H33          0.2972  -1.0822  -2.3135 H              1 <1>                0.0000
     34 H34          1.8470  -1.0660  -1.4382 H              1 <1>                0.0000
     35 H35          1.3723  -3.3342  -0.5558 H              1 <1>                0.0000
     36 H36         -0.1775  -3.3504  -1.4311 H              1 <1>                0.0000
     37 H37          1.0341  -3.1054  -3.5807 H              1 <1>                0.0000
     38 H38          2.5839  -3.0892  -2.7054 H              1 <1>                0.0000
     39 H39          2.2728  -5.7597  -1.5573 H              1 <1>                0.0000
     40 H40          3.1002  -7.6640  -3.5350 H              1 <1>                0.0000
     41 H41          1.5505  -7.6802  -4.4103 H              1 <1>                0.0000
     42 H42          3.0573  -7.2943  -5.2756 H              1 <1>                0.0000
@<TRIPOS>BOND
    1    1    2 1     
    2    1   16 1     
    3    1   17 1     
    4    1   18 1     
    5    2    3 1     
    6    2   19 1     
    7    2   20 1     
    8    3    4 1     
    9    3   21 1     
   10    3   22 1     
   11    4    5 1     
   12    4   23 1     
   13    4   24 1     
   14    5    6 1     
   15    5   25 1     
   16    5   26 1     
   17    6    7 1     
   18    6   27 1     
   19    6   28 1     
   20    7    8 1     
   21    7   29 1     
   22    7   30 1     
   23    8    9 1     
   24    8   31 1     
   25    8   32 1     
   26    9   10 1     
   27    9   33 1     
   28    9   34 1     
   29   10   11 1     
   30   10   35 1     
   31   10   36 1     
   32   11   12 1     
   33   11   37 1     
   34   11   38 1     
   35   12   13 2     
   36   12   14 1     
   37   12   39 1     
   38   14   15 1     
   39   15   40 1     
   40   15   41 1     
   41   15   42 1     
@<TRIPOS>SUBSTRUCTURE
      1 ****           1
