#       Name:                DPQ
#       Creating user name   gbret
#       Creation time:       Fri Sep  9 06:50:49 2016


#       File generated by GOLD software.
#

@<TRIPOS>MOLECULE
DPQ
    25    25     1
SMALL
NO_CHARGES


@<TRIPOS>ATOM
      1 N1           0.2770   1.4091  -1.8062 N.4            1 <1>                0.0000
      2 H2           0.2907   0.4002  -1.8118 H              1 <1>                0.0000
      3 H3           1.2236   1.7584  -1.8134 H              1 <1>                0.0000
      4 H4          -0.2110   1.7434  -2.6237 H              1 <1>                0.0000
      5 C5          -0.4106   1.8829  -0.5976 C.3            1 <1>                0.0000
      6 C6           0.3294   1.3760   0.6419 C.3            1 <1>                0.0000
      7 C7           0.2440  -0.1275   0.6981 C.2            1 <1>                0.0000
      8 C8           1.2460  -0.8364   0.1947 C.2            1 <1>                0.0000
      9 C9           1.1796  -2.3087   0.2255 C.2            1 <1>                0.0000
     10 O10          2.1756  -2.9871   0.0577 O.2            1 <1>                0.0000
     11 C11         -0.1386  -2.9326   0.4679 C.2            1 <1>                0.0000
     12 O12         -0.3396  -4.2463   0.1814 O.3            1 <1>                0.0000
     13 C13         -1.1262  -2.1954   0.9697 C.2            1 <1>                0.0000
     14 C14         -0.9637  -0.7495   1.3245 C.3            1 <1>                0.0000
     15 C15         -0.4310   3.3897  -0.5893 C.2            1 <1>                0.0000
     16 O16         -1.1102   3.9857   0.2293 O.co2          1 <1>                0.0000
     17 O17          0.2316   4.0128  -1.4012 O.co2          1 <1>                0.0000
     18 H18         -1.4332   1.5056  -0.5899 H              1 <1>                0.0000
     19 H19          1.3752   1.6789   0.5899 H              1 <1>                0.0000
     20 H20         -0.1275   1.7996   1.5363 H              1 <1>                0.0000
     21 H21          2.1031  -0.3389  -0.2346 H              1 <1>                0.0000
     22 H22          0.4384  -4.6939  -0.1782 H              1 <1>                0.0000
     23 H23         -2.0867  -2.6619   1.1320 H              1 <1>                0.0000
     24 H24         -0.8907  -0.6603   2.4084 H              1 <1>                0.0000
     25 H25         -1.8460  -0.2047   0.9887 H              1 <1>                0.0000
@<TRIPOS>BOND
    1    1    2 1     
    2    1    3 1     
    3    1    4 1     
    4    1    5 1     
    5    5    6 1     
    6    5   15 1     
    7    5   18 1     
    8    6    7 1     
    9    6   19 1     
   10    6   20 1     
   11    7   14 1     
   12    7    8 2     
   13    8    9 1     
   14    8   21 1     
   15    9   10 2     
   16    9   11 1     
   17   11   12 1     
   18   11   13 2     
   19   12   22 1     
   20   13   14 1     
   21   13   23 1     
   22   14   24 1     
   23   14   25 1     
   24   15   16 ar    
   25   15   17 ar    
@<TRIPOS>SUBSTRUCTURE
      1 ****           1
@<TRIPOS>SET
DONOR_HYDROGENS      STATIC     ATOMS    <user>   **** ""
4 2 3 4 22
ATOM$RED        STATIC     ATOMS    COLORGROUP SYSTEM
4 2 3 4 22
