#       Name:                DSI
#       Creating user name   gbret
#       Creation time:       Fri Sep  9 06:55:59 2016


#       File generated by GOLD software.
#

@<TRIPOS>MOLECULE
DSI
    48    52     1
SMALL
NO_CHARGES


@<TRIPOS>ATOM
      1 C1          -1.6619   7.9699  -2.7504 C.3            1 <1>                0.0000
      2 O2          -1.6530   6.5179  -2.7504 O.3            1 <1>                0.0000
      3 C3          -1.0286   5.9096  -1.7216 C.2            1 <1>                0.0000
      4 O4          -0.5060   6.5749  -0.8486 O.2            1 <1>                0.0000
      5 C5          -0.9799   4.4429  -1.6558 C.2            1 <1>                0.0000
      6 C6          -0.3874   3.7169  -0.6703 C.2            1 <1>                0.0000
      7 C7          -0.5635   2.3465  -0.9786 C.ar           1 <1>                0.0000
      8 C8          -0.1732   1.1608  -0.3373 C.ar           1 <1>                0.0000
      9 C9           0.5936   0.9348   0.9465 C.3            1 <1>                0.0000
     10 C10         -0.1653   1.5309   2.1337 C.3            1 <1>                0.0000
     11 C11          0.6820  -0.5943   1.0795 C.3            1 <1>                0.0000
     12 N12         -0.0164  -1.1193  -0.0968 N.am           1 <1>                0.0000
     13 C13         -0.1780  -2.4270  -0.3800 C.2            1 <1>                0.0000
     14 O14         -0.8519  -2.7638  -1.3353 O.2            1 <1>                0.0000
     15 C15          0.4600  -3.4465   0.4656 C.2            1 <1>                0.0000
     16 C16          0.4685  -4.7826   0.2180 C.2            1 <1>                0.0000
     17 C17          1.1839  -5.4107   1.2660 C.ar           1 <1>                0.0000
     18 C18          1.5119  -6.7445   1.5426 C.ar           1 <1>                0.0000
     19 C19          2.2313  -7.0484   2.6614 C.ar           1 <1>                0.0000
     20 C20          2.6431  -6.0467   3.5317 C.ar           1 <1>                0.0000
     21 C21          2.3329  -4.7288   3.2820 C.ar           1 <1>                0.0000
     22 C22          1.6002  -4.3933   2.1467 C.ar           1 <1>                0.0000
     23 N23          1.1515  -3.1984   1.6355 N.pl3          1 <1>                0.0000
     24 H24          1.2956  -2.3249   2.0319 H              1 <1>                0.0000
     25 C25         -0.4917  -0.0626  -0.8834 C.ar           1 <1>                0.0000
     26 C26         -1.2100  -0.1139  -2.0884 C.ar           1 <1>                0.0000
     27 C27         -1.5994   1.0398  -2.7308 C.ar           1 <1>                0.0000
     28 O28         -2.2944   0.9659  -3.8970 O.3            1 <1>                0.0000
     29 C29         -1.2834   2.2858  -2.1850 C.ar           1 <1>                0.0000
     30 N30         -1.5338   3.5806  -2.5817 N.pl3          1 <1>                0.0000
     31 H31         -2.0165   3.8436  -3.3809 H              1 <1>                0.0000
     32 H32         -0.6367   8.3395  -2.7702 H              1 <1>                0.0000
     33 H33         -2.1950   8.3299  -3.6304 H              1 <1>                0.0000
     34 H34         -2.1608   8.3302  -1.8507 H              1 <1>                0.0000
     35 H35          0.1257   4.1146   0.1928 H              1 <1>                0.0000
     36 H36          1.5903   1.3704   0.8758 H              1 <1>                0.0000
     37 H37         -1.1427   1.0555   2.2159 H              1 <1>                0.0000
     38 H38          0.4003   1.3595   3.0496 H              1 <1>                0.0000
     39 H39         -0.2942   2.6025   1.9814 H              1 <1>                0.0000
     40 H40          1.7237  -0.9151   1.0759 H              1 <1>                0.0000
     41 H41          0.1865  -0.9242   1.9926 H              1 <1>                0.0000
     42 H42          0.0113  -5.2768  -0.6265 H              1 <1>                0.0000
     43 H43          1.1959  -7.5300   0.8722 H              1 <1>                0.0000
     44 H44          2.4826  -8.0773   2.8727 H              1 <1>                0.0000
     45 H45          3.2119  -6.3044   4.4129 H              1 <1>                0.0000
     46 H46          2.6569  -3.9574   3.9649 H              1 <1>                0.0000
     47 H47         -1.4605  -1.0726  -2.5180 H              1 <1>                0.0000
     48 H48         -3.2542   0.9404  -3.7819 H              1 <1>                0.0000
@<TRIPOS>BOND
    1    1    2 1     
    2    1   32 1     
    3    1   33 1     
    4    1   34 1     
    5    2    3 1     
    6    3    4 2     
    7    3    5 1     
    8    5   30 1     
    9    5    6 2     
   10    6    7 1     
   11    6   35 1     
   12    7   29 ar    
   13    7    8 ar    
   14    8   25 ar    
   15    8    9 1     
   16    9   10 1     
   17    9   11 1     
   18    9   36 1     
   19   10   37 1     
   20   10   38 1     
   21   10   39 1     
   22   11   12 1     
   23   11   40 1     
   24   11   41 1     
   25   12   13 am    
   26   12   25 1     
   27   13   14 2     
   28   13   15 1     
   29   15   23 1     
   30   15   16 2     
   31   16   17 1     
   32   16   42 1     
   33   17   22 ar    
   34   17   18 ar    
   35   18   19 ar    
   36   18   43 1     
   37   19   20 ar    
   38   19   44 1     
   39   20   21 ar    
   40   20   45 1     
   41   21   22 ar    
   42   21   46 1     
   43   22   23 1     
   44   23   24 1     
   45   25   26 ar    
   46   26   27 ar    
   47   26   47 1     
   48   27   28 1     
   49   27   29 ar    
   50   28   48 1     
   51   29   30 1     
   52   30   31 1     
@<TRIPOS>SUBSTRUCTURE
      1 ****           1
@<TRIPOS>SET
DONOR_HYDROGENS      STATIC     ATOMS    <user>   **** ""
3 24 48 31
ATOM$RED        STATIC     ATOMS    COLORGROUP SYSTEM
3 24 48 31
