#       Name:                DUP
#       Creating user name   gbret
#       Creation time:       Fri Sep  9 06:59:37 2016


#       File generated by GOLD software.
#

@<TRIPOS>MOLECULE
DUP
    40    41     1
SMALL
NO_CHARGES


@<TRIPOS>ATOM
      1 O1           2.4119   2.0379   0.2375 O.3            1 <1>                0.0000
      2 C2           2.4313   0.6090   0.2296 C.3            1 <1>                0.0000
      3 C3           2.9840   0.0494   1.5688 C.3            1 <1>                0.0000
      4 C4           1.7312   0.0617   2.4709 C.3            1 <1>                0.0000
      5 O5           0.5821   0.0744   1.6158 O.3            1 <1>                0.0000
      6 C6           0.9937   0.0310   0.2402 C.3            1 <1>                0.0000
      7 C7           0.0677   0.8946  -0.6187 C.3            1 <1>                0.0000
      8 O8          -1.2397   0.3181  -0.6372 O.3            1 <1>                0.0000
      9 P9          -2.4720   0.9653  -1.4464 P.3            1 <1>                0.0000
     10 O10         -3.7952   0.3305  -0.9636 O.co2          1 <1>                0.0000
     11 O11         -2.5098   2.4892  -1.1945 O.co2          1 <1>                0.0000
     12 N12         -2.2774   0.6734  -3.0924 N.3            1 <1>                0.0000
     13 P13         -3.5475   1.3350  -3.9765 P.3            1 <1>                0.0000
     14 O14         -4.8799   0.7034  -3.5155 O.co2          1 <1>                0.0000
     15 O15         -3.5945   2.8621  -3.7464 O.co2          1 <1>                0.0000
     16 O16         -3.3248   1.0349  -5.5426 O.3            1 <1>                0.0000
     17 P17         -4.1537   1.3857  -6.8775 P.3            1 <1>                0.0000
     18 O18         -3.8583   2.8645  -7.3021 O.co2          1 <1>                0.0000
     19 O19         -3.7230   0.4155  -8.0297 O.co2          1 <1>                0.0000
     20 O20         -5.6864   1.2184  -6.5995 O.co2          1 <1>                0.0000
     21 N21          1.7121  -1.1382   3.3112 N.am           1 <1>                0.0000
     22 C22          1.5865  -2.3707   2.7301 C.2            1 <1>                0.0000
     23 C23          1.5694  -3.4765   3.5046 C.2            1 <1>                0.0000
     24 C24          1.6823  -3.3358   4.9088 C.2            1 <1>                0.0000
     25 O25          1.6697  -4.3186   5.6279 O.2            1 <1>                0.0000
     26 N26          1.8043  -2.1036   5.4426 N.am           1 <1>                0.0000
     27 H27          1.8822  -1.9991   6.4038 H              1 <1>                0.0000
     28 C28          1.8237  -1.0184   4.6466 C.2            1 <1>                0.0000
     29 O29          1.9347   0.0864   5.1420 O.2            1 <1>                0.0000
     30 H30          3.2898   2.4432   0.2313 H              1 <1>                0.0000
     31 H31          3.0004   0.2310  -0.6196 H              1 <1>                0.0000
     32 H32          3.3590  -0.9659   1.4396 H              1 <1>                0.0000
     33 H33          3.7585   0.7019   1.9717 H              1 <1>                0.0000
     34 H34          1.7356   0.9534   3.0976 H              1 <1>                0.0000
     35 H35          0.9967  -0.9972  -0.1215 H              1 <1>                0.0000
     36 H36          0.0159   1.8994  -0.1996 H              1 <1>                0.0000
     37 H37          0.4572   0.9446  -1.6355 H              1 <1>                0.0000
     38 H38         -1.3889   1.0226  -3.4190 H              1 <1>                0.0000
     39 H39          1.5012  -2.4584   1.6570 H              1 <1>                0.0000
     40 H40          1.4705  -4.4553   3.0589 H              1 <1>                0.0000
@<TRIPOS>BOND
    1    1    2 1     
    2    1   30 1     
    3    2    6 1     
    4    2    3 1     
    5    2   31 1     
    6    3    4 1     
    7    3   32 1     
    8    3   33 1     
    9    4    5 1     
   10    4   21 1     
   11    4   34 1     
   12    5    6 1     
   13    6    7 1     
   14    6   35 1     
   15    7    8 1     
   16    7   36 1     
   17    7   37 1     
   18    8    9 1     
   19    9   10 ar    
   20    9   11 ar    
   21    9   12 1     
   22   12   13 1     
   23   12   38 1     
   24   13   14 ar    
   25   13   15 ar    
   26   13   16 1     
   27   16   17 1     
   28   17   18 ar    
   29   17   19 ar    
   30   17   20 ar    
   31   21   28 1     
   32   21   22 1     
   33   22   23 2     
   34   22   39 1     
   35   23   24 1     
   36   23   40 1     
   37   24   25 2     
   38   24   26 1     
   39   26   27 1     
   40   26   28 1     
   41   28   29 2     
@<TRIPOS>SUBSTRUCTURE
      1 ****           1
@<TRIPOS>SET
DONOR_HYDROGENS      STATIC     ATOMS    <user>   **** ""
3 30 38 27
ATOM$RED        STATIC     ATOMS    COLORGROUP SYSTEM
3 30 38 27
