#       Name:                DXG
#       Creating user name   gbret
#       Creation time:       Fri Sep  9 07:02:05 2016


#       File generated by GOLD software.
#

@<TRIPOS>MOLECULE
DXG
    21    20     1
SMALL
NO_CHARGES


@<TRIPOS>ATOM
      1 O1          -0.5069   1.4244   0.6218 O.3            1 <1>                0.0000
      2 C2          -0.4875  -0.0045   0.6139 C.3            1 <1>                0.0000
      3 C3           0.2286  -0.4979  -0.6449 C.3            1 <1>                0.0000
      4 C4          -0.5788  -0.0972  -1.8812 C.3            1 <1>                0.0000
      5 O5          -0.6026   1.3271  -1.9935 O.3            1 <1>                0.0000
      6 C6           0.0603  -0.6876  -3.1116 C.2            1 <1>                0.0000
      7 O7           0.0973  -1.8974  -3.2586 O.co2          1 <1>                0.0000
      8 O8           0.5405   0.0446  -3.9601 O.co2          1 <1>                0.0000
      9 C9           0.2525  -0.5113   1.8534 C.3            1 <1>                0.0000
     10 O10          1.6235  -0.1143   1.7853 O.3            1 <1>                0.0000
     11 C11         -0.3792   0.0743   3.0900 C.2            1 <1>                0.0000
     12 O12         -1.5252  -0.2182   3.3861 O.co2          1 <1>                0.0000
     13 O13          0.2558   0.8406   3.7944 O.co2          1 <1>                0.0000
     14 H14          0.3710   1.8297   0.6156 H              1 <1>                0.0000
     15 H15         -1.5101  -0.3818   0.6217 H              1 <1>                0.0000
     16 H16          1.2207  -0.0495  -0.6979 H              1 <1>                0.0000
     17 H17          0.3220  -1.5833  -0.6079 H              1 <1>                0.0000
     18 H18         -1.5982  -0.4713  -1.7862 H              1 <1>                0.0000
     19 H19          0.2723   1.7294  -2.0815 H              1 <1>                0.0000
     20 H20          0.1907  -1.5988   1.8941 H              1 <1>                0.0000
     21 H21          1.7543   0.8431   1.7464 H              1 <1>                0.0000
@<TRIPOS>BOND
    1    1    2 1     
    2    1   14 1     
    3    2    3 1     
    4    2    9 1     
    5    2   15 1     
    6    3    4 1     
    7    3   16 1     
    8    3   17 1     
    9    4    5 1     
   10    4    6 1     
   11    4   18 1     
   12    5   19 1     
   13    6    7 ar    
   14    6    8 ar    
   15    9   10 1     
   16    9   11 1     
   17    9   20 1     
   18   10   21 1     
   19   11   12 ar    
   20   11   13 ar    
@<TRIPOS>SUBSTRUCTURE
      1 ****           1
@<TRIPOS>SET
DONOR_HYDROGENS      STATIC     ATOMS    <user>   **** ""
3 14 19 21
ATOM$RED        STATIC     ATOMS    COLORGROUP SYSTEM
3 14 19 21
