#       Name:                DYY
#       Creating user name   gbret
#       Creation time:       Fri Sep  9 07:03:48 2016


#       File generated by GOLD software.
#

@<TRIPOS>MOLECULE
DYY
    48    51     1
SMALL
NO_CHARGES


@<TRIPOS>ATOM
      1 F1          -2.2732  -1.1914  -3.7705 F              1 <1>                0.0000
      2 C2          -2.2915   0.1595  -3.7631 C.ar           1 <1>                0.0000
      3 C3          -3.4998   0.8357  -3.7421 C.ar           1 <1>                0.0000
      4 C4          -3.5188   2.2176  -3.7350 C.ar           1 <1>                0.0000
      5 C5          -2.3323   2.9262  -3.7488 C.ar           1 <1>                0.0000
      6 C6          -1.1229   2.2521  -3.7693 C.ar           1 <1>                0.0000
      7 F7           0.0368   2.9451  -3.7827 F              1 <1>                0.0000
      8 C8          -1.1025   0.8681  -3.7706 C.ar           1 <1>                0.0000
      9 S9           0.4357   0.0090  -3.7961 S.o2           1 <1>                0.0000
     10 O10          0.1679  -1.2774  -4.3372 O.2            1 <1>                0.0000
     11 O11          1.3864   0.9049  -4.3553 O.2            1 <1>                0.0000
     12 N12          0.8891  -0.2311  -2.2216 N.pl3          1 <1>                0.0000
     13 C13          1.7055   0.7678  -1.5177 C.3            1 <1>                0.0000
     14 C14          2.9615   0.0774  -0.9715 C.3            1 <1>                0.0000
     15 N15          2.5543  -1.1382  -0.2529 N.pl3          1 <1>                0.0000
     16 C16          1.7378  -2.1371  -0.9568 C.3            1 <1>                0.0000
     17 C17          0.4772  -1.4441  -1.5012 C.3            1 <1>                0.0000
     18 S18          3.0077  -1.3783   1.3216 S.o2           1 <1>                0.0000
     19 O19          2.9655  -2.7815   1.5418 O.2            1 <1>                0.0000
     20 O20          4.1747  -0.5941   1.5272 O.2            1 <1>                0.0000
     21 C21          1.7515  -0.6770   2.3389 C.ar           1 <1>                0.0000
     22 C22          1.8361   0.6476   2.7256 C.ar           1 <1>                0.0000
     23 C23          0.8536   1.2008   3.5245 C.ar           1 <1>                0.0000
     24 C24         -0.2202   0.4280   3.9411 C.ar           1 <1>                0.0000
     25 O25         -1.1757   0.9843   4.7349 O.3            1 <1>                0.0000
     26 C26         -2.4230   0.2873   4.8254 C.3            1 <1>                0.0000
     27 C27         -2.1266  -1.2016   5.0507 C.3            1 <1>                0.0000
     28 O28         -1.3546  -1.6775   3.9428 O.3            1 <1>                0.0000
     29 C29         -0.3070  -0.9026   3.5496 C.ar           1 <1>                0.0000
     30 C30          0.6804  -1.4505   2.7442 C.ar           1 <1>                0.0000
     31 H31         -4.4276   0.2830  -3.7317 H              1 <1>                0.0000
     32 H32         -4.4616   2.7442  -3.7191 H              1 <1>                0.0000
     33 H33         -2.3484   4.0061  -3.7440 H              1 <1>                0.0000
     34 H34          1.9945   1.5580  -2.2105 H              1 <1>                0.0000
     35 H35          1.1334   1.1923  -0.6927 H              1 <1>                0.0000
     36 H36          3.6207  -0.1894  -1.7975 H              1 <1>                0.0000
     37 H37          3.4806   0.7496  -0.2883 H              1 <1>                0.0000
     38 H38          2.3100  -2.5616  -1.7817 H              1 <1>                0.0000
     39 H39          1.4489  -2.9274  -0.2639 H              1 <1>                0.0000
     40 H40         -0.1807  -1.1788  -0.6737 H              1 <1>                0.0000
     41 H41         -0.0429  -2.1153  -2.1847 H              1 <1>                0.0000
     42 H42          2.6718   1.2510   2.4030 H              1 <1>                0.0000
     43 H43          0.9221   2.2359   3.8251 H              1 <1>                0.0000
     44 H44         -3.0022   0.6774   5.6623 H              1 <1>                0.0000
     45 H45         -2.9832   0.4144   3.8990 H              1 <1>                0.0000
     46 H46         -1.5613  -1.3282   5.9741 H              1 <1>                0.0000
     47 H47         -3.0621  -1.7574   5.1126 H              1 <1>                0.0000
     48 H48          0.6142  -2.4837   2.4369 H              1 <1>                0.0000
@<TRIPOS>BOND
    1    1    2 1     
    2    2    8 ar    
    3    2    3 ar    
    4    3    4 ar    
    5    3   31 1     
    6    4    5 ar    
    7    4   32 1     
    8    5    6 ar    
    9    5   33 1     
   10    6    7 1     
   11    6    8 ar    
   12    8    9 1     
   13    9   10 2     
   14    9   11 2     
   15    9   12 1     
   16   12   17 1     
   17   12   13 1     
   18   13   14 1     
   19   13   34 1     
   20   13   35 1     
   21   14   15 1     
   22   14   36 1     
   23   14   37 1     
   24   15   16 1     
   25   15   18 1     
   26   16   17 1     
   27   16   38 1     
   28   16   39 1     
   29   17   40 1     
   30   17   41 1     
   31   18   19 2     
   32   18   20 2     
   33   18   21 1     
   34   21   30 ar    
   35   21   22 ar    
   36   22   23 ar    
   37   22   42 1     
   38   23   24 ar    
   39   23   43 1     
   40   24   29 ar    
   41   24   25 1     
   42   25   26 1     
   43   26   27 1     
   44   26   44 1     
   45   26   45 1     
   46   27   28 1     
   47   27   46 1     
   48   27   47 1     
   49   28   29 1     
   50   29   30 ar    
   51   30   48 1     
@<TRIPOS>SUBSTRUCTURE
      1 ****           1
