#       Name:                DZN
#       Creating user name   gbret
#       Creation time:       Fri Sep  9 07:04:45 2016


#       File generated by GOLD software.
#

@<TRIPOS>MOLECULE
DZN
    50    53     1
SMALL
NO_CHARGES


@<TRIPOS>ATOM
      1 O1           3.5511  -1.1727   2.5040 O.3            1 <1>                0.0000
      2 C2           3.5705  -2.6016   2.4961 C.3            1 <1>                0.0000
      3 C3           2.1351  -3.1311   2.5070 C.3            1 <1>                0.0000
      4 O4           1.4797  -2.7565   1.2936 O.3            1 <1>                0.0000
      5 C5           0.1178  -3.1813   1.2109 C.3            1 <1>                0.0000
      6 O6          -0.4468  -2.7341  -0.0233 O.3            1 <1>                0.0000
      7 C7          -0.5646  -1.3930  -0.1970 C.ar           1 <1>                0.0000
      8 C8          -0.1360  -0.5266   0.8068 C.ar           1 <1>                0.0000
      9 C9          -0.2485   0.8247   0.6454 C.ar           1 <1>                0.0000
     10 C10         -0.7956   1.3384  -0.5313 C.ar           1 <1>                0.0000
     11 C11         -1.2310   0.4731  -1.5502 C.ar           1 <1>                0.0000
     12 C12         -1.1041  -0.8984  -1.3720 C.ar           1 <1>                0.0000
     13 O13         -1.7587   0.9710  -2.6858 O.3            1 <1>                0.0000
     14 C14         -1.9008   2.2789  -2.9165 C.2            1 <1>                0.0000
     15 C15         -1.5224   3.2246  -2.0185 C.2            1 <1>                0.0000
     16 C16         -1.7003   4.6663  -2.3186 C.ar           1 <1>                0.0000
     17 C17         -2.3143   5.5028  -1.3879 C.ar           1 <1>                0.0000
     18 C18         -2.4778   6.8431  -1.6697 C.ar           1 <1>                0.0000
     19 C19         -2.0317   7.3591  -2.8786 C.ar           1 <1>                0.0000
     20 O20         -2.1939   8.6802  -3.1532 O.3            1 <1>                0.0000
     21 C21         -1.4199   6.5287  -3.8075 C.ar           1 <1>                0.0000
     22 C22         -1.2487   5.1886  -3.5294 C.ar           1 <1>                0.0000
     23 C23         -0.9322   2.7911  -0.7406 C.2            1 <1>                0.0000
     24 O24         -0.5741   3.5947   0.1032 O.2            1 <1>                0.0000
     25 C25          0.0566  -4.7096   1.2762 C.3            1 <1>                0.0000
     26 O26          0.7504  -5.2637   0.1566 O.3            1 <1>                0.0000
     27 C27          0.7175  -5.1843   2.5740 C.3            1 <1>                0.0000
     28 O28          0.7304  -6.6128   2.6091 O.3            1 <1>                0.0000
     29 C29          2.1549  -4.6574   2.6244 C.3            1 <1>                0.0000
     30 O30          2.9043  -5.2101   1.5404 O.3            1 <1>                0.0000
     31 H31          4.4290  -0.7674   2.4978 H              1 <1>                0.0000
     32 H32          4.0807  -2.9531   1.5993 H              1 <1>                0.0000
     33 H33          4.0977  -2.9626   3.3792 H              1 <1>                0.0000
     34 H34          1.5980  -2.7082   3.3560 H              1 <1>                0.0000
     35 H35         -0.4459  -2.7589   2.0427 H              1 <1>                0.0000
     36 H36          0.2869  -0.9258   1.7169 H              1 <1>                0.0000
     37 H37          0.0843   1.4934   1.4255 H              1 <1>                0.0000
     38 H38         -1.4332  -1.5775  -2.1447 H              1 <1>                0.0000
     39 H39         -2.3332   2.5966  -3.8538 H              1 <1>                0.0000
     40 H40         -2.6619   5.1018  -0.4473 H              1 <1>                0.0000
     41 H41         -2.9538   7.4916  -0.9492 H              1 <1>                0.0000
     42 H42         -1.4544   9.2347  -2.8690 H              1 <1>                0.0000
     43 H43         -1.0739   6.9331  -4.7472 H              1 <1>                0.0000
     44 H44         -0.7726   4.5429  -4.2526 H              1 <1>                0.0000
     45 H45         -0.9840  -5.0337   1.2566 H              1 <1>                0.0000
     46 H46          0.3879  -5.0004  -0.7004 H              1 <1>                0.0000
     47 H47          0.1580  -4.8036   3.4285 H              1 <1>                0.0000
     48 H48         -0.1482  -7.0151   2.5734 H              1 <1>                0.0000
     49 H49          2.6150  -4.9441   3.5700 H              1 <1>                0.0000
     50 H50          2.9544  -6.1757   1.5489 H              1 <1>                0.0000
@<TRIPOS>BOND
    1    1    2 1     
    2    1   31 1     
    3    2    3 1     
    4    2   32 1     
    5    2   33 1     
    6    3   29 1     
    7    3    4 1     
    8    3   34 1     
    9    4    5 1     
   10    5    6 1     
   11    5   25 1     
   12    5   35 1     
   13    6    7 1     
   14    7   12 ar    
   15    7    8 ar    
   16    8    9 ar    
   17    8   36 1     
   18    9   10 ar    
   19    9   37 1     
   20   10   23 1     
   21   10   11 ar    
   22   11   12 ar    
   23   11   13 1     
   24   12   38 1     
   25   13   14 1     
   26   14   15 2     
   27   14   39 1     
   28   15   16 1     
   29   15   23 1     
   30   16   22 ar    
   31   16   17 ar    
   32   17   18 ar    
   33   17   40 1     
   34   18   19 ar    
   35   18   41 1     
   36   19   20 1     
   37   19   21 ar    
   38   20   42 1     
   39   21   22 ar    
   40   21   43 1     
   41   22   44 1     
   42   23   24 2     
   43   25   26 1     
   44   25   27 1     
   45   25   45 1     
   46   26   46 1     
   47   27   28 1     
   48   27   29 1     
   49   27   47 1     
   50   28   48 1     
   51   29   30 1     
   52   29   49 1     
   53   30   50 1     
@<TRIPOS>SUBSTRUCTURE
      1 ****           1
@<TRIPOS>SET
DONOR_HYDROGENS      STATIC     ATOMS    <user>   **** ""
5 31 42 46 48 50
ATOM$RED        STATIC     ATOMS    COLORGROUP SYSTEM
5 31 42 46 48 50
