#       Name:                E14
#       Creating user name   gbret
#       Creation time:       Fri Sep  9 07:05:54 2016


#       File generated by GOLD software.
#

@<TRIPOS>MOLECULE
E14
    95    97     1
SMALL
NO_CHARGES


@<TRIPOS>ATOM
      1 C1          -3.9109   0.2822  -5.7022 C.3            1 <1>                0.0000
      2 C2          -2.4574  -0.0518  -6.0436 C.3            1 <1>                0.0000
      3 C3          -2.2915  -0.1124  -7.5634 C.3            1 <1>                0.0000
      4 C4          -1.5380   1.0297  -5.4729 C.3            1 <1>                0.0000
      5 N5          -1.6074   1.0074  -4.0097 N.am           1 <1>                0.0000
      6 C6          -0.8758   1.8786  -3.2870 C.2            1 <1>                0.0000
      7 O7          -0.1600   2.6810  -3.8480 O.2            1 <1>                0.0000
      8 C8          -0.9472   1.8557  -1.7819 C.3            1 <1>                0.0000
      9 N9           0.2733   2.4396  -1.2467 N.am           1 <1>                0.0000
     10 C10          0.0758   3.6062  -0.3642 C.3            1 <1>                0.0000
     11 S11         -1.5489   4.2649  -0.9251 S.3            1 <1>                0.0000
     12 C12         -2.2250   2.6008  -1.3336 C.3            1 <1>                0.0000
     13 C13         -3.2409   2.6851  -2.4745 C.3            1 <1>                0.0000
     14 C14         -2.8420   1.9401  -0.0992 C.3            1 <1>                0.0000
     15 C15          1.4955   1.9504  -1.5354 C.2            1 <1>                0.0000
     16 O16          2.4877   2.5282  -1.1447 O.2            1 <1>                0.0000
     17 C17          1.6293   0.6856  -2.3436 C.3            1 <1>                0.0000
     18 O18          2.9945   0.5068  -2.7260 O.3            1 <1>                0.0000
     19 C19          1.1750  -0.5083  -1.5015 C.3            1 <1>                0.0000
     20 C20          1.4318  -1.8041  -2.2733 C.3            1 <1>                0.0000
     21 C21          0.8149  -2.9615  -1.5312 C.ar           1 <1>                0.0000
     22 C22          1.6133  -3.9917  -1.0705 C.ar           1 <1>                0.0000
     23 C23          1.0474  -5.0534  -0.3898 C.ar           1 <1>                0.0000
     24 C24         -0.3169  -5.0847  -0.1692 C.ar           1 <1>                0.0000
     25 C25         -1.1152  -4.0541  -0.6291 C.ar           1 <1>                0.0000
     26 C26         -0.5487  -2.9903  -1.3061 C.ar           1 <1>                0.0000
     27 N27          1.9254  -0.5323  -0.2435 N.am           1 <1>                0.0000
     28 C28          1.3283  -0.9521   0.8895 C.2            1 <1>                0.0000
     29 O29          0.2145  -1.4300   0.8467 O.2            1 <1>                0.0000
     30 C30          2.0448  -0.8278   2.2095 C.3            1 <1>                0.0000
     31 N31          1.0700  -0.5667   3.2715 N.am           1 <1>                0.0000
     32 C32          1.4542   0.0645   4.3986 C.2            1 <1>                0.0000
     33 O33          2.6070   0.4164   4.5336 O.2            1 <1>                0.0000
     34 C34          0.4515   0.3331   5.4910 C.3            1 <1>                0.0000
     35 N35          1.1583   0.5729   6.7563 N.4            1 <1>                0.0000
     36 H36          1.7675   1.3709   6.6553 H              1 <1>                0.0000
     37 H37          0.4869   0.7527   7.4877 H              1 <1>                0.0000
     38 H38          1.7060  -0.2403   6.9949 H              1 <1>                0.0000
     39 C39         -0.3665   1.5475   5.1346 C.ar           1 <1>                0.0000
     40 C40          0.1506   2.8132   5.3382 C.ar           1 <1>                0.0000
     41 C41         -0.5997   3.9273   5.0113 C.ar           1 <1>                0.0000
     42 C42         -1.8669   3.7755   4.4803 C.ar           1 <1>                0.0000
     43 C43         -2.3837   2.5098   4.2758 C.ar           1 <1>                0.0000
     44 C44         -1.6317   1.3958   4.5988 C.ar           1 <1>                0.0000
     45 C45          2.7898  -2.1299   2.5099 C.3            1 <1>                0.0000
     46 C46          3.8352  -2.3822   1.4216 C.3            1 <1>                0.0000
     47 C47          3.4848  -2.0180   3.8684 C.3            1 <1>                0.0000
     48 C48          1.7947  -3.2916   2.5403 C.3            1 <1>                0.0000
     49 H49         -4.5660  -0.4883  -6.1088 H              1 <1>                0.0000
     50 H50         -4.0292   0.3254  -4.6195 H              1 <1>                0.0000
     51 H51         -4.1732   1.2476  -6.1351 H              1 <1>                0.0000
     52 H52         -2.1952  -1.0172  -5.6107 H              1 <1>                0.0000
     53 H53         -2.5537   0.8530  -7.9963 H              1 <1>                0.0000
     54 H54         -1.2559  -0.3504  -7.8066 H              1 <1>                0.0000
     55 H55         -2.9465  -0.8829  -7.9700 H              1 <1>                0.0000
     56 H56         -0.5128   0.8400  -5.7909 H              1 <1>                0.0000
     57 H57         -1.8564   2.0066  -5.8369 H              1 <1>                0.0000
     58 H58         -2.1799   0.3657  -3.5610 H              1 <1>                0.0000
     59 H59         -1.0116   0.8192  -1.4508 H              1 <1>                0.0000
     60 H60          0.0281   3.2974   0.6801 H              1 <1>                0.0000
     61 H61          0.8647   4.3430  -0.5150 H              1 <1>                0.0000
     62 H62         -2.7640   3.1169  -3.3545 H              1 <1>                0.0000
     63 H63         -3.6044   1.6854  -2.7120 H              1 <1>                0.0000
     64 H64         -4.0780   3.3133  -2.1700 H              1 <1>                0.0000
     65 H65         -3.6693   2.5498   0.2640 H              1 <1>                0.0000
     66 H66         -3.2101   0.9487  -0.3635 H              1 <1>                0.0000
     67 H67         -2.0863   1.8510   0.6812 H              1 <1>                0.0000
     68 H68          1.0084   0.7576  -3.2366 H              1 <1>                0.0000
     69 H69          3.6057   0.4347  -1.9801 H              1 <1>                0.0000
     70 H70          0.1100  -0.4177  -1.2876 H              1 <1>                0.0000
     71 H71          0.9869  -1.7302  -3.2656 H              1 <1>                0.0000
     72 H72          2.5058  -1.9640  -2.3677 H              1 <1>                0.0000
     73 H73          2.6792  -3.9672  -1.2428 H              1 <1>                0.0000
     74 H74          1.6711  -5.8585  -0.0305 H              1 <1>                0.0000
     75 H75         -0.7591  -5.9145   0.3620 H              1 <1>                0.0000
     76 H76         -2.1811  -4.0787  -0.4571 H              1 <1>                0.0000
     77 H77         -1.1725  -2.1851  -1.6654 H              1 <1>                0.0000
     78 H78          2.8521  -0.2460  -0.2260 H              1 <1>                0.0000
     79 H79          2.7574  -0.0045   2.1599 H              1 <1>                0.0000
     80 H80          0.1480  -0.8481   3.1634 H              1 <1>                0.0000
     81 H81         -0.2065  -0.5290   5.6002 H              1 <1>                0.0000
     82 H82          1.1407   2.9318   5.7530 H              1 <1>                0.0000
     83 H83         -0.1959   4.9161   5.1710 H              1 <1>                0.0000
     84 H84         -2.4534   4.6459   4.2255 H              1 <1>                0.0000
     85 H85         -3.3739   2.3913   3.8613 H              1 <1>                0.0000
     86 H86         -2.0354   0.4069   4.4391 H              1 <1>                0.0000
     87 H87          4.3484  -1.4495   1.1876 H              1 <1>                0.0000
     88 H88          4.5589  -3.1161   1.7761 H              1 <1>                0.0000
     89 H89          3.3429  -2.7607   0.5257 H              1 <1>                0.0000
     90 H90          2.7400  -1.8383   4.6438 H              1 <1>                0.0000
     91 H91          4.0156  -2.9457   4.0825 H              1 <1>                0.0000
     92 H92          4.1938  -1.1904   3.8468 H              1 <1>                0.0000
     93 H93          1.4467  -3.4985   1.5283 H              1 <1>                0.0000
     94 H94          2.2832  -4.1781   2.9448 H              1 <1>                0.0000
     95 H95          0.9451  -3.0260   3.1694 H              1 <1>                0.0000
@<TRIPOS>BOND
    1    1    2 1     
    2    1   49 1     
    3    1   50 1     
    4    1   51 1     
    5    2    3 1     
    6    2    4 1     
    7    2   52 1     
    8    3   53 1     
    9    3   54 1     
   10    3   55 1     
   11    4    5 1     
   12    4   56 1     
   13    4   57 1     
   14    5    6 am    
   15    5   58 1     
   16    6    7 2     
   17    6    8 1     
   18    8   12 1     
   19    8    9 1     
   20    8   59 1     
   21    9   10 1     
   22    9   15 am    
   23   10   11 1     
   24   10   60 1     
   25   10   61 1     
   26   11   12 1     
   27   12   13 1     
   28   12   14 1     
   29   13   62 1     
   30   13   63 1     
   31   13   64 1     
   32   14   65 1     
   33   14   66 1     
   34   14   67 1     
   35   15   16 2     
   36   15   17 1     
   37   17   18 1     
   38   17   19 1     
   39   17   68 1     
   40   18   69 1     
   41   19   20 1     
   42   19   27 1     
   43   19   70 1     
   44   20   21 1     
   45   20   71 1     
   46   20   72 1     
   47   21   26 ar    
   48   21   22 ar    
   49   22   23 ar    
   50   22   73 1     
   51   23   24 ar    
   52   23   74 1     
   53   24   25 ar    
   54   24   75 1     
   55   25   26 ar    
   56   25   76 1     
   57   26   77 1     
   58   27   28 am    
   59   27   78 1     
   60   28   29 2     
   61   28   30 1     
   62   30   31 1     
   63   30   45 1     
   64   30   79 1     
   65   31   32 am    
   66   31   80 1     
   67   32   33 2     
   68   32   34 1     
   69   34   35 1     
   70   34   39 1     
   71   34   81 1     
   72   35   36 1     
   73   35   37 1     
   74   35   38 1     
   75   39   44 ar    
   76   39   40 ar    
   77   40   41 ar    
   78   40   82 1     
   79   41   42 ar    
   80   41   83 1     
   81   42   43 ar    
   82   42   84 1     
   83   43   44 ar    
   84   43   85 1     
   85   44   86 1     
   86   45   46 1     
   87   45   47 1     
   88   45   48 1     
   89   46   87 1     
   90   46   88 1     
   91   46   89 1     
   92   47   90 1     
   93   47   91 1     
   94   47   92 1     
   95   48   93 1     
   96   48   94 1     
   97   48   95 1     
@<TRIPOS>SUBSTRUCTURE
      1 ****           1
@<TRIPOS>SET
DONOR_HYDROGENS      STATIC     ATOMS    <user>   **** ""
7 58 69 78 80 36 37 38
ATOM$RED        STATIC     ATOMS    COLORGROUP SYSTEM
7 58 69 78 80 36 37 38
