#       Name:                EDI
#       Creating user name   gbret
#       Creation time:       Fri Sep  9 07:16:29 2016


#       File generated by GOLD software.
#

@<TRIPOS>MOLECULE
EDI
    39    41     1
SMALL
NO_CHARGES


@<TRIPOS>ATOM
      1 O1           0.6715   2.7429  -3.0095 O.3            1 <1>                0.0000
      2 C2           0.6909   1.3140  -3.0174 C.3            1 <1>                0.0000
      3 C3           1.2436   0.7544  -1.6782 C.3            1 <1>                0.0000
      4 C4          -0.0092   0.7667  -0.7761 C.3            1 <1>                0.0000
      5 O5          -1.1583   0.7794  -1.6312 O.3            1 <1>                0.0000
      6 C6          -0.7467   0.7360  -3.0068 C.3            1 <1>                0.0000
      7 C7          -1.6727   1.5996  -3.8657 C.3            1 <1>                0.0000
      8 O8          -2.9801   1.0231  -3.8842 O.3            1 <1>                0.0000
      9 P9          -4.2124   1.6703  -4.6934 P.3            1 <1>                0.0000
     10 O10         -3.9094   1.6253  -6.2298 O.co2          1 <1>                0.0000
     11 O11         -5.5179   0.8574  -4.3945 O.co2          1 <1>                0.0000
     12 O12         -4.4089   3.1580  -4.2432 O.co2          1 <1>                0.0000
     13 N13         -0.0283  -0.4332   0.0642 N.pl3          1 <1>                0.0000
     14 C14         -0.6786  -1.5991  -0.2103 C.2            1 <1>                0.0000
     15 N15         -0.4801  -2.4519   0.7532 N.2            1 <1>                0.0000
     16 C16          0.3058  -1.8849   1.6978 C.2            1 <1>                0.0000
     17 C17          0.6080  -0.5902   1.2648 C.2            1 <1>                0.0000
     18 N18          1.3810   0.1983   2.0248 N.2            1 <1>                0.0000
     19 C19          1.8588  -0.2185   3.1638 C.2            1 <1>                0.0000
     20 N20          1.6044  -1.4624   3.6423 N.am           1 <1>                0.0000
     21 C21          2.1679  -1.8768   4.9295 C.3            1 <1>                0.0000
     22 C22          1.1908  -1.5216   6.0520 C.3            1 <1>                0.0000
     23 I23          2.0224  -2.1331   7.9517 I              1 <1>                0.0000
     24 C24          0.8379  -2.3233   2.9361 C.2            1 <1>                0.0000
     25 O25          0.6030  -3.4429   3.3572 O.2            1 <1>                0.0000
     26 H26          1.5494   3.1482  -3.0157 H              1 <1>                0.0000
     27 H27          1.2600   0.9360  -3.8666 H              1 <1>                0.0000
     28 H28          1.6186  -0.2609  -1.8074 H              1 <1>                0.0000
     29 H29          2.0181   1.4069  -1.2753 H              1 <1>                0.0000
     30 H30         -0.0048   1.6584  -0.1494 H              1 <1>                0.0000
     31 H31         -0.7437  -0.2922  -3.3685 H              1 <1>                0.0000
     32 H32         -1.7245   2.6044  -3.4466 H              1 <1>                0.0000
     33 H33         -1.2832   1.6496  -4.8825 H              1 <1>                0.0000
     34 H34         -1.2700  -1.7872  -1.0942 H              1 <1>                0.0000
     35 H35          2.4780   0.4482   3.7456 H              1 <1>                0.0000
     36 H36          2.3372  -2.9536   4.9223 H              1 <1>                0.0000
     37 H37          3.1140  -1.3614   5.0947 H              1 <1>                0.0000
     38 H38          1.0215  -0.4449   6.0592 H              1 <1>                0.0000
     39 H39          0.2447  -2.0371   5.8868 H              1 <1>                0.0000
@<TRIPOS>BOND
    1    1    2 1     
    2    1   26 1     
    3    2    6 1     
    4    2    3 1     
    5    2   27 1     
    6    3    4 1     
    7    3   28 1     
    8    3   29 1     
    9    4    5 1     
   10    4   13 1     
   11    4   30 1     
   12    5    6 1     
   13    6    7 1     
   14    6   31 1     
   15    7    8 1     
   16    7   32 1     
   17    7   33 1     
   18    8    9 1     
   19    9   10 ar    
   20    9   11 ar    
   21    9   12 ar    
   22   13   17 1     
   23   13   14 1     
   24   14   15 2     
   25   14   34 1     
   26   15   16 1     
   27   16   24 1     
   28   16   17 2     
   29   17   18 1     
   30   18   19 2     
   31   19   20 1     
   32   19   35 1     
   33   20   21 1     
   34   20   24 am    
   35   21   22 1     
   36   21   36 1     
   37   21   37 1     
   38   22   23 1     
   39   22   38 1     
   40   22   39 1     
   41   24   25 2     
@<TRIPOS>SUBSTRUCTURE
      1 ****           1
@<TRIPOS>SET
DONOR_HYDROGENS      STATIC     ATOMS    <user>   **** ""
1 26
ATOM$RED        STATIC     ATOMS    COLORGROUP SYSTEM
1 26
