#       Name:                EDV
#       Creating user name   gbret
#       Creation time:       Fri Sep  9 07:17:00 2016


#       File generated by GOLD software.
#

@<TRIPOS>MOLECULE
EDV
    33    34     1
SMALL
NO_CHARGES


@<TRIPOS>ATOM
      1 C1          -1.7767   1.4085  -0.9889 C.3            1 <1>                0.0000
      2 C2          -1.8925  -0.1071  -0.8144 C.3            1 <1>                0.0000
      3 C3          -0.9117  -0.8491  -1.7628 C.3            1 <1>                0.0000
      4 O4           0.2985  -0.1087  -1.9340 O.3            1 <1>                0.0000
      5 C5          -0.6604  -2.1530  -0.9643 C.3            1 <1>                0.0000
      6 C6           0.6868  -2.7638  -1.3552 C.3            1 <1>                0.0000
      7 O7           0.8483  -4.0220  -0.6972 O.3            1 <1>                0.0000
      8 O8          -0.6444  -1.7512   0.4147 O.3            1 <1>                0.0000
      9 C9          -1.3902  -0.5395   0.5799 C.3            1 <1>                0.0000
     10 N10         -0.5274   0.5023   1.1425 N.am           1 <1>                0.0000
     11 C11          0.8169   0.4537   0.9106 C.2            1 <1>                0.0000
     12 C12          1.6240   1.4236   1.4332 C.2            1 <1>                0.0000
     13 C13          3.0381   1.4023   1.2084 C.1            1 <1>                0.0000
     14 C14          4.1974   1.3848   1.0240 C.1            1 <1>                0.0000
     15 C15          1.0034   2.4905   2.2323 C.2            1 <1>                0.0000
     16 O16          1.6815   3.3768   2.7182 O.2            1 <1>                0.0000
     17 N17         -0.3335   2.4671   2.4155 N.am           1 <1>                0.0000
     18 H18         -0.7610   3.1624   2.9396 H              1 <1>                0.0000
     19 C19         -1.0765   1.4878   1.8709 C.2            1 <1>                0.0000
     20 O20         -2.2790   1.4894   2.0507 O.2            1 <1>                0.0000
     21 H21         -0.7340   1.7079  -0.8832 H              1 <1>                0.0000
     22 H22         -2.1366   1.6888  -1.9788 H              1 <1>                0.0000
     23 H23         -2.3771   1.9087  -0.2290 H              1 <1>                0.0000
     24 H24         -2.9185  -0.4373  -0.9767 H              1 <1>                0.0000
     25 H25         -1.3795  -1.0605  -2.7243 H              1 <1>                0.0000
     26 H26          0.9405  -0.5343  -2.5185 H              1 <1>                0.0000
     27 H27         -1.4647  -2.8668  -1.1426 H              1 <1>                0.0000
     28 H28          0.7192  -2.9115  -2.4347 H              1 <1>                0.0000
     29 H29          1.4910  -2.0916  -1.0561 H              1 <1>                0.0000
     30 H30          1.6825  -4.4674  -0.8993 H              1 <1>                0.0000
     31 H31         -2.2391  -0.7150   1.2407 H              1 <1>                0.0000
     32 H32          1.2388  -0.3453   0.3190 H              1 <1>                0.0000
     33 H33          5.2343   1.3691   0.8592 H              1 <1>                0.0000
@<TRIPOS>BOND
    1    1    2 1     
    2    1   21 1     
    3    1   22 1     
    4    1   23 1     
    5    2    9 1     
    6    2    3 1     
    7    2   24 1     
    8    3    4 1     
    9    3    5 1     
   10    3   25 1     
   11    4   26 1     
   12    5    6 1     
   13    5    8 1     
   14    5   27 1     
   15    6    7 1     
   16    6   28 1     
   17    6   29 1     
   18    7   30 1     
   19    8    9 1     
   20    9   10 1     
   21    9   31 1     
   22   10   19 1     
   23   10   11 1     
   24   11   12 2     
   25   11   32 1     
   26   12   13 1     
   27   12   15 1     
   28   13   14 3     
   29   14   33 1     
   30   15   16 2     
   31   15   17 1     
   32   17   18 1     
   33   17   19 1     
   34   19   20 2     
@<TRIPOS>SUBSTRUCTURE
      1 ****           1
@<TRIPOS>SET
DONOR_HYDROGENS      STATIC     ATOMS    <user>   **** ""
3 26 30 18
ATOM$RED        STATIC     ATOMS    COLORGROUP SYSTEM
3 26 30 18
