#       Name:                EL1
#       Creating user name   gbret
#       Creation time:       Fri Sep  9 07:22:38 2016


#       File generated by GOLD software.
#

@<TRIPOS>MOLECULE
EL1
    59    62     1
SMALL
NO_CHARGES


@<TRIPOS>ATOM
      1 C1           3.8854   4.7226   2.1617 C.3            1 <1>                0.0000
      2 N2           3.5717   3.3057   1.9614 N.am           1 <1>                0.0000
      3 C3           2.2873   2.9027   1.8952 C.2            1 <1>                0.0000
      4 O4           1.3888   3.7153   2.0019 O.2            1 <1>                0.0000
      5 C5           1.9717   1.4774   1.6937 C.ar           1 <1>                0.0000
      6 C6           3.0038   0.5410   1.5768 C.ar           1 <1>                0.0000
      7 C7           2.7137  -0.7795   1.3906 C.ar           1 <1>                0.0000
      8 C8           1.3852  -1.2057   1.3150 C.ar           1 <1>                0.0000
      9 C9           0.3473  -0.2834   1.4295 C.ar           1 <1>                0.0000
     10 C10          0.6350   1.0563   1.6247 C.ar           1 <1>                0.0000
     11 O11         -0.3707   1.9599   1.7370 O.3            1 <1>                0.0000
     12 C12         -1.7032   1.4719   1.5686 C.3            1 <1>                0.0000
     13 C13         -2.7339   2.4818   2.1387 C.3            1 <1>                0.0000
     14 C14         -3.9912   2.1521   1.2960 C.3            1 <1>                0.0000
     15 N15         -3.4735   1.8436  -0.0494 N.am           1 <1>                0.0000
     16 C16         -2.0753   1.4056   0.0724 C.3            1 <1>                0.0000
     17 C17         -4.1673   1.9454  -1.2004 C.2            1 <1>                0.0000
     18 O18         -5.2948   2.4037  -1.1929 O.2            1 <1>                0.0000
     19 C19         -3.5642   1.5045  -2.4606 C.2            1 <1>                0.0000
     20 C20         -4.2006   1.4545  -3.6692 C.2            1 <1>                0.0000
     21 C21         -3.3976   1.0017  -4.6883 C.2            1 <1>                0.0000
     22 C22         -2.1451   0.6906  -4.3289 C.2            1 <1>                0.0000
     23 Br23        -0.8196   0.0442  -5.5125 Br             1 <1>                0.0000
     24 S24         -1.9038   0.9621  -2.6619 S.3            1 <1>                0.0000
     25 C25          1.0796  -2.6410   1.1123 C.ar           1 <1>                0.0000
     26 C26          0.1617  -3.2855   1.9398 C.ar           1 <1>                0.0000
     27 C27         -0.1193  -4.6223   1.7469 C.ar           1 <1>                0.0000
     28 C28          0.5072  -5.3286   0.7340 C.ar           1 <1>                0.0000
     29 C29          1.4189  -4.7023  -0.0926 C.ar           1 <1>                0.0000
     30 C30          1.7074  -3.3560   0.0844 C.ar           1 <1>                0.0000
     31 N31          2.6267  -2.7218  -0.7488 N.pl3          1 <1>                0.0000
     32 S32          2.7260  -3.1457  -2.3466 S.o2           1 <1>                0.0000
     33 C33          1.0737  -2.7994  -3.0103 C.3            1 <1>                0.0000
     34 O34          3.6806  -2.2440  -2.8897 O.2            1 <1>                0.0000
     35 O35          2.9708  -4.5453  -2.3232 O.2            1 <1>                0.0000
     36 H36          4.9670   4.8549   2.1884 H              1 <1>                0.0000
     37 H37          3.4681   5.3066   1.3414 H              1 <1>                0.0000
     38 H38          3.4546   5.0604   3.1042 H              1 <1>                0.0000
     39 H39          4.2883   2.6575   1.8763 H              1 <1>                0.0000
     40 H40          4.0329   0.8636   1.6335 H              1 <1>                0.0000
     41 H41          3.5147  -1.4984   1.3009 H              1 <1>                0.0000
     42 H42         -0.6793  -0.6136   1.3703 H              1 <1>                0.0000
     43 H43         -1.8166   0.4946   2.0379 H              1 <1>                0.0000
     44 H44         -2.9147   2.2996   3.1980 H              1 <1>                0.0000
     45 H45         -2.4090   3.5086   1.9704 H              1 <1>                0.0000
     46 H46         -4.5096   1.2875   1.7104 H              1 <1>                0.0000
     47 H47         -4.6585   3.0131   1.2574 H              1 <1>                0.0000
     48 H48         -1.4277   2.0693  -0.5004 H              1 <1>                0.0000
     49 H49         -1.9744   0.3825  -0.2897 H              1 <1>                0.0000
     50 H50         -5.2321   1.7423  -3.8094 H              1 <1>                0.0000
     51 H51         -3.7505   0.9034  -5.7043 H              1 <1>                0.0000
     52 H52         -0.3289  -2.7389   2.7316 H              1 <1>                0.0000
     53 H53         -0.8308  -5.1202   2.3890 H              1 <1>                0.0000
     54 H54          0.2818  -6.3749   0.5900 H              1 <1>                0.0000
     55 H55          1.9043  -5.2590  -0.8806 H              1 <1>                0.0000
     56 H56          3.2085  -2.0320  -0.3930 H              1 <1>                0.0000
     57 H57          0.8457  -1.7411  -2.8835 H              1 <1>                0.0000
     58 H58          1.0476  -3.0523  -4.0702 H              1 <1>                0.0000
     59 H59          0.3350  -3.3968  -2.4759 H              1 <1>                0.0000
@<TRIPOS>BOND
    1    1    2 1     
    2    1   36 1     
    3    1   37 1     
    4    1   38 1     
    5    2    3 am    
    6    2   39 1     
    7    3    4 2     
    8    3    5 1     
    9    5   10 ar    
   10    5    6 ar    
   11    6    7 ar    
   12    6   40 1     
   13    7    8 ar    
   14    7   41 1     
   15    8    9 ar    
   16    8   25 1     
   17    9   10 ar    
   18    9   42 1     
   19   10   11 1     
   20   11   12 1     
   21   12   16 1     
   22   12   13 1     
   23   12   43 1     
   24   13   14 1     
   25   13   44 1     
   26   13   45 1     
   27   14   15 1     
   28   14   46 1     
   29   14   47 1     
   30   15   16 1     
   31   15   17 am    
   32   16   48 1     
   33   16   49 1     
   34   17   18 2     
   35   17   19 1     
   36   19   24 1     
   37   19   20 2     
   38   20   21 1     
   39   20   50 1     
   40   21   22 2     
   41   21   51 1     
   42   22   23 1     
   43   22   24 1     
   44   25   30 ar    
   45   25   26 ar    
   46   26   27 ar    
   47   26   52 1     
   48   27   28 ar    
   49   27   53 1     
   50   28   29 ar    
   51   28   54 1     
   52   29   30 ar    
   53   29   55 1     
   54   30   31 1     
   55   31   32 1     
   56   31   56 1     
   57   32   33 1     
   58   32   34 2     
   59   32   35 2     
   60   33   57 1     
   61   33   58 1     
   62   33   59 1     
@<TRIPOS>SUBSTRUCTURE
      1 ****           1
@<TRIPOS>SET
DONOR_HYDROGENS      STATIC     ATOMS    <user>   **** ""
2 39 56
ATOM$RED        STATIC     ATOMS    COLORGROUP SYSTEM
2 39 56
