#       Name:                EOL
#       Creating user name   gbret
#       Creation time:       Fri Sep  9 07:26:26 2016


#       File generated by GOLD software.
#

@<TRIPOS>MOLECULE
EOL
    24    24     1
SMALL
NO_CHARGES


@<TRIPOS>ATOM
      1 C1          -1.1673   1.7488  -2.6906 C.3            1 <1>                0.0000
      2 O2          -1.1479   0.3199  -2.6985 O.3            1 <1>                0.0000
      3 C3          -0.5238  -0.2948  -1.6583 C.ar           1 <1>                0.0000
      4 C4           0.0521   0.4607  -0.6495 C.ar           1 <1>                0.0000
      5 C5           0.6858  -0.1657   0.4074 C.ar           1 <1>                0.0000
      6 C6           1.3115   0.6576   1.5036 C.3            1 <1>                0.0000
      7 C7           0.2950   0.9058   2.5880 C.2            1 <1>                0.0000
      8 C8           0.5643   0.5747   3.8265 C.2            1 <1>                0.0000
      9 C9           0.7464  -1.5459   0.4611 C.ar           1 <1>                0.0000
     10 C10          0.1743  -2.3055  -0.5422 C.ar           1 <1>                0.0000
     11 C11         -0.4670  -1.6840  -1.6017 C.ar           1 <1>                0.0000
     12 O12         -1.0307  -2.4299  -2.5893 O.3            1 <1>                0.0000
     13 H13         -0.1447   2.1261  -2.6984 H              1 <1>                0.0000
     14 H14         -1.6945   2.1099  -3.5737 H              1 <1>                0.0000
     15 H15         -1.6775   2.1003  -1.7938 H              1 <1>                0.0000
     16 H16          0.0062   1.5390  -0.6892 H              1 <1>                0.0000
     17 H17          2.1635   0.1203   1.9203 H              1 <1>                0.0000
     18 H18          1.6475   1.6108   1.0954 H              1 <1>                0.0000
     19 H19         -0.6556   1.3567   2.3441 H              1 <1>                0.0000
     20 H20          1.5149   0.1238   4.0704 H              1 <1>                0.0000
     21 H21         -0.1643   0.7526   4.6037 H              1 <1>                0.0000
     22 H22          1.2420  -2.0316   1.2887 H              1 <1>                0.0000
     23 H23          0.2233  -3.3835  -0.4980 H              1 <1>                0.0000
     24 H24         -1.9543  -2.6652  -2.4261 H              1 <1>                0.0000
@<TRIPOS>BOND
    1    1    2 1     
    2    1   13 1     
    3    1   14 1     
    4    1   15 1     
    5    2    3 1     
    6    3   11 ar    
    7    3    4 ar    
    8    4    5 ar    
    9    4   16 1     
   10    5    6 1     
   11    5    9 ar    
   12    6    7 1     
   13    6   17 1     
   14    6   18 1     
   15    7    8 2     
   16    7   19 1     
   17    8   20 1     
   18    8   21 1     
   19    9   10 ar    
   20    9   22 1     
   21   10   11 ar    
   22   10   23 1     
   23   11   12 1     
   24   12   24 1     
@<TRIPOS>SUBSTRUCTURE
      1 ****           1
@<TRIPOS>SET
DONOR_HYDROGENS      STATIC     ATOMS    <user>   **** ""
1 24
ATOM$RED        STATIC     ATOMS    COLORGROUP SYSTEM
1 24
