#       Name:                EP9
#       Creating user name   gbret
#       Creation time:       Fri Sep  9 07:27:13 2016


#       File generated by GOLD software.
#

@<TRIPOS>MOLECULE
EP9
    81    82     1
SMALL
NO_CHARGES


@<TRIPOS>ATOM
      1 C1          -2.9314   1.7160   3.2815 C.3            1 <1>                0.0000
      2 C2          -3.3044   0.2428   3.1042 C.3            1 <1>                0.0000
      3 C3          -4.8270   0.0952   3.1325 C.3            1 <1>                0.0000
      4 C4          -2.7681  -0.2612   1.7628 C.3            1 <1>                0.0000
      5 C5          -1.2385  -0.2303   1.7811 C.3            1 <1>                0.0000
      6 N6          -0.7428  -1.1816   2.7789 N.am           1 <1>                0.0000
      7 C7          -0.6370  -0.8100   4.0701 C.2            1 <1>                0.0000
      8 O8          -0.9528   0.3140   4.4066 O.2            1 <1>                0.0000
      9 O9          -0.1814  -1.6843   4.9870 O.3            1 <1>                0.0000
     10 C10         -0.0938  -1.2154   6.3584 C.3            1 <1>                0.0000
     11 C11          0.4324  -2.3225   7.2351 C.ar           1 <1>                0.0000
     12 C12         -0.4454  -3.2079   7.8321 C.ar           1 <1>                0.0000
     13 C13          0.0373  -4.2233   8.6363 C.ar           1 <1>                0.0000
     14 C14          1.3979  -4.3537   8.8431 C.ar           1 <1>                0.0000
     15 C15          2.2758  -3.4688   8.2454 C.ar           1 <1>                0.0000
     16 C16          1.7933  -2.4560   7.4378 C.ar           1 <1>                0.0000
     17 C17         -0.7121  -0.6091   0.4208 C.2            1 <1>                0.0000
     18 O18          0.0064  -1.5783   0.2969 O.2            1 <1>                0.0000
     19 N19         -1.0398   0.1291  -0.6581 N.am           1 <1>                0.0000
     20 C20         -0.4417  -0.1724  -1.9611 C.3            1 <1>                0.0000
     21 C21         -1.3017  -1.2070  -2.6898 C.3            1 <1>                0.0000
     22 C22         -0.6088  -1.6217  -3.9894 C.3            1 <1>                0.0000
     23 C23          0.6790  -2.3798  -3.6613 C.3            1 <1>                0.0000
     24 C24         -1.5410  -2.5260  -4.7982 C.3            1 <1>                0.0000
     25 C25         -0.3676   1.0882  -2.7836 C.2            1 <1>                0.0000
     26 O26         -1.0605   2.0413  -2.4964 O.2            1 <1>                0.0000
     27 N27          0.4687   1.1565  -3.8383 N.am           1 <1>                0.0000
     28 C28          0.6194   2.4147  -4.5733 C.3            1 <1>                0.0000
     29 C29          1.9862   2.4434  -5.2604 C.3            1 <1>                0.0000
     30 C30          3.0729   2.4589  -4.2165 C.ar           1 <1>                0.0000
     31 C31          3.5443   3.6637  -3.7287 C.ar           1 <1>                0.0000
     32 C32          4.5404   3.6806  -2.7718 C.ar           1 <1>                0.0000
     33 C33          5.0676   2.4872  -2.2998 C.ar           1 <1>                0.0000
     34 O34          6.0473   2.5012  -1.3581 O.3            1 <1>                0.0000
     35 C35          4.5926   1.2796  -2.7905 C.ar           1 <1>                0.0000
     36 C36          3.5930   1.2681  -3.7440 C.ar           1 <1>                0.0000
     37 C37         -0.4838   2.5248  -5.6277 C.3            1 <1>                0.0000
     38 O38         -1.7604   2.4980  -4.9860 O.3            1 <1>                0.0000
     39 C39         -0.3288   3.8191  -6.3838 C.2            1 <1>                0.0000
     40 O40         -0.1517   3.8031  -7.5782 O.2            1 <1>                0.0000
     41 H41         -1.8467   1.8211   3.2613 H              1 <1>                0.0000
     42 H42         -3.3683   2.3013   2.4725 H              1 <1>                0.0000
     43 H43         -3.3136   2.0750   4.2371 H              1 <1>                0.0000
     44 H44         -2.8676  -0.3426   3.9132 H              1 <1>                0.0000
     45 H45         -5.2639   0.6806   2.3234 H              1 <1>                0.0000
     46 H46         -5.0928  -0.9543   3.0061 H              1 <1>                0.0000
     47 H47         -5.2092   0.4543   4.0881 H              1 <1>                0.0000
     48 H48         -3.1089  -1.2830   1.5960 H              1 <1>                0.0000
     49 H49         -3.1349   0.3796   0.9610 H              1 <1>                0.0000
     50 H50         -0.8984   0.7735   2.0357 H              1 <1>                0.0000
     51 H51         -0.4907  -2.0789   2.5102 H              1 <1>                0.0000
     52 H52          0.5811  -0.3609   6.4079 H              1 <1>                0.0000
     53 H53         -1.0835  -0.9173   6.7044 H              1 <1>                0.0000
     54 H54         -1.5084  -3.1060   7.6705 H              1 <1>                0.0000
     55 H55         -0.6486  -4.9146   9.1033 H              1 <1>                0.0000
     56 H56          1.7750  -5.1466   9.4720 H              1 <1>                0.0000
     57 H57          3.3387  -3.5705   8.4073 H              1 <1>                0.0000
     58 H58          2.4792  -1.7646   6.9708 H              1 <1>                0.0000
     59 H59         -1.6716   0.8601  -0.5719 H              1 <1>                0.0000
     60 H60          0.5622  -0.5714  -1.8164 H              1 <1>                0.0000
     61 H61         -1.4344  -2.0820  -2.0536 H              1 <1>                0.0000
     62 H62         -2.2751  -0.7736  -2.9193 H              1 <1>                0.0000
     63 H63         -0.3686  -0.7328  -4.5727 H              1 <1>                0.0000
     64 H64          0.4332  -3.3059  -3.1416 H              1 <1>                0.0000
     65 H65          1.2097  -2.6113  -4.5848 H              1 <1>                0.0000
     66 H66          1.3117  -1.7623  -3.0237 H              1 <1>                0.0000
     67 H67         -2.4584  -1.9859  -5.0319 H              1 <1>                0.0000
     68 H68         -1.0474  -2.8214  -5.7240 H              1 <1>                0.0000
     69 H69         -1.7812  -3.4149  -4.2148 H              1 <1>                0.0000
     70 H70          0.9707   0.3725  -4.1107 H              1 <1>                0.0000
     71 H71          0.5438   3.2521  -3.8796 H              1 <1>                0.0000
     72 H72          2.0966   1.5582  -5.8868 H              1 <1>                0.0000
     73 H73          2.0634   3.3379  -5.8785 H              1 <1>                0.0000
     74 H74          3.1336   4.5924  -4.0964 H              1 <1>                0.0000
     75 H75          4.9088   4.6220  -2.3916 H              1 <1>                0.0000
     76 H76          5.7190   2.4867  -0.4487 H              1 <1>                0.0000
     77 H77          5.0016   0.3493  -2.4250 H              1 <1>                0.0000
     78 H78          3.2226   0.3283  -4.1260 H              1 <1>                0.0000
     79 H79         -0.4083   1.6874  -6.3214 H              1 <1>                0.0000
     80 H80         -1.9291   1.6917  -4.4795 H              1 <1>                0.0000
     81 H81         -0.3760   4.7610  -5.8574 H              1 <1>                0.0000
@<TRIPOS>BOND
    1    1    2 1     
    2    1   41 1     
    3    1   42 1     
    4    1   43 1     
    5    2    3 1     
    6    2    4 1     
    7    2   44 1     
    8    3   45 1     
    9    3   46 1     
   10    3   47 1     
   11    4    5 1     
   12    4   48 1     
   13    4   49 1     
   14    5    6 1     
   15    5   17 1     
   16    5   50 1     
   17    6    7 am    
   18    6   51 1     
   19    7    8 2     
   20    7    9 1     
   21    9   10 1     
   22   10   11 1     
   23   10   52 1     
   24   10   53 1     
   25   11   16 ar    
   26   11   12 ar    
   27   12   13 ar    
   28   12   54 1     
   29   13   14 ar    
   30   13   55 1     
   31   14   15 ar    
   32   14   56 1     
   33   15   16 ar    
   34   15   57 1     
   35   16   58 1     
   36   17   18 2     
   37   17   19 am    
   38   19   20 1     
   39   19   59 1     
   40   20   21 1     
   41   20   25 1     
   42   20   60 1     
   43   21   22 1     
   44   21   61 1     
   45   21   62 1     
   46   22   23 1     
   47   22   24 1     
   48   22   63 1     
   49   23   64 1     
   50   23   65 1     
   51   23   66 1     
   52   24   67 1     
   53   24   68 1     
   54   24   69 1     
   55   25   26 2     
   56   25   27 am    
   57   27   28 1     
   58   27   70 1     
   59   28   29 1     
   60   28   37 1     
   61   28   71 1     
   62   29   30 1     
   63   29   72 1     
   64   29   73 1     
   65   30   36 ar    
   66   30   31 ar    
   67   31   32 ar    
   68   31   74 1     
   69   32   33 ar    
   70   32   75 1     
   71   33   34 1     
   72   33   35 ar    
   73   34   76 1     
   74   35   36 ar    
   75   35   77 1     
   76   36   78 1     
   77   37   38 1     
   78   37   39 1     
   79   37   79 1     
   80   38   80 1     
   81   39   40 2     
   82   39   81 1     
@<TRIPOS>SUBSTRUCTURE
      1 ****           1
@<TRIPOS>SET
DONOR_HYDROGENS      STATIC     ATOMS    <user>   **** ""
5 51 59 70 76 80
ATOM$RED        STATIC     ATOMS    COLORGROUP SYSTEM
5 51 59 70 76 80
