#       Name:                ERM
#       Creating user name   gbret
#       Creation time:       Fri Sep  9 07:29:58 2016


#       File generated by GOLD software.
#

@<TRIPOS>MOLECULE
ERM
    79    86     1
SMALL
NO_CHARGES


@<TRIPOS>ATOM
      1 C1          -4.3474   4.6112  -1.0830 C.3            1 <1>                0.0000
      2 N2          -3.8919   3.2178  -1.1782 N.4            1 <1>                0.0000
      3 H3          -4.6922   2.6199  -1.3200 H              1 <1>                0.0000
      4 C4          -3.2341   2.8445   0.0759 C.3            1 <1>                0.0000
      5 C5          -2.9142   1.3457   0.0300 C.3            1 <1>                0.0000
      6 C6          -2.0579   1.0870  -1.1814 C.2            1 <1>                0.0000
      7 C7          -2.1010   1.8820  -2.2366 C.2            1 <1>                0.0000
      8 C8          -2.9955   3.0888  -2.3192 C.3            1 <1>                0.0000
      9 C9          -3.8138   3.1573  -3.6164 C.3            1 <1>                0.0000
     10 C10         -2.9121   2.8987  -4.7945 C.2            1 <1>                0.0000
     11 C11         -2.9357   3.2138  -6.0853 C.2            1 <1>                0.0000
     12 N12         -1.8254   2.6895  -6.7289 N.pl3          1 <1>                0.0000
     13 H13         -1.6336   2.7926  -7.6741 H              1 <1>                0.0000
     14 C14         -1.0419   2.0091  -5.8466 C.ar           1 <1>                0.0000
     15 C15          0.1486   1.2833  -5.8781 C.ar           1 <1>                0.0000
     16 C16          0.5999   0.7386  -4.6819 C.ar           1 <1>                0.0000
     17 C17         -0.0569   0.8739  -3.4602 C.ar           1 <1>                0.0000
     18 C18         -1.2318   1.5865  -3.3921 C.ar           1 <1>                0.0000
     19 C19         -1.6888   2.1261  -4.6136 C.ar           1 <1>                0.0000
     20 C20         -2.1668   0.9464   1.2762 C.2            1 <1>                0.0000
     21 O21         -1.7836   1.7963   2.0519 O.2            1 <1>                0.0000
     22 N22         -1.9243  -0.3551   1.5286 N.am           1 <1>                0.0000
     23 C23         -1.2924  -0.7513   2.7896 C.3            1 <1>                0.0000
     24 C24         -2.0989  -0.2090   3.9713 C.3            1 <1>                0.0000
     25 O25         -1.2080  -2.1810   2.8676 O.3            1 <1>                0.0000
     26 C26          0.1624  -2.4961   3.0809 C.3            1 <1>                0.0000
     27 O27          0.3533  -2.9393   4.4260 O.3            1 <1>                0.0000
     28 C28          0.6733  -3.5555   2.1076 C.3            1 <1>                0.0000
     29 C29          0.0384  -4.9300   2.3671 C.3            1 <1>                0.0000
     30 C30          1.1931  -5.8910   1.9641 C.3            1 <1>                0.0000
     31 C31          2.4376  -5.1328   2.4878 C.3            1 <1>                0.0000
     32 N32          2.1189  -3.7044   2.3818 N.am           1 <1>                0.0000
     33 C33          2.9520  -2.6614   2.5673 C.2            1 <1>                0.0000
     34 O34          4.1419  -2.8521   2.7040 O.2            1 <1>                0.0000
     35 C35          2.4035  -1.2559   2.6041 C.3            1 <1>                0.0000
     36 C36          2.6885  -0.5660   1.2686 C.3            1 <1>                0.0000
     37 C37          4.1777  -0.4307   1.0809 C.ar           1 <1>                0.0000
     38 C38          4.8513   0.6363   1.6453 C.ar           1 <1>                0.0000
     39 C39          6.2173   0.7605   1.4731 C.ar           1 <1>                0.0000
     40 C40          6.9096  -0.1826   0.7368 C.ar           1 <1>                0.0000
     41 C41          6.2361  -1.2501   0.1731 C.ar           1 <1>                0.0000
     42 C42          4.8709  -1.3765   0.3489 C.ar           1 <1>                0.0000
     43 N43          0.9573  -1.2793   2.8389 N.am           1 <1>                0.0000
     44 C44          0.1218  -0.2257   2.8455 C.2            1 <1>                0.0000
     45 O45          0.4472   0.9419   2.8884 O.2            1 <1>                0.0000
     46 H46         -3.4884   5.2645  -0.9297 H              1 <1>                0.0000
     47 H47         -4.8565   4.8909  -2.0053 H              1 <1>                0.0000
     48 H48         -5.0351   4.7121  -0.2434 H              1 <1>                0.0000
     49 H49         -2.3108   3.4128   0.1885 H              1 <1>                0.0000
     50 H50         -3.8994   3.0515   0.9142 H              1 <1>                0.0000
     51 H51         -3.8393   0.7740  -0.0442 H              1 <1>                0.0000
     52 H52         -1.3948   0.2346  -1.1880 H              1 <1>                0.0000
     53 H53         -2.3486   3.9661  -2.3167 H              1 <1>                0.0000
     54 H54         -4.6011   2.4040  -3.5894 H              1 <1>                0.0000
     55 H55         -4.2612   4.1467  -3.7118 H              1 <1>                0.0000
     56 H56         -3.7097   3.7948  -6.5647 H              1 <1>                0.0000
     57 H57          0.6991   1.1495  -6.7976 H              1 <1>                0.0000
     58 H58          1.5197   0.1729  -4.7003 H              1 <1>                0.0000
     59 H59          0.3555   0.4227  -2.5699 H              1 <1>                0.0000
     60 H60         -2.1682  -1.0294   0.8754 H              1 <1>                0.0000
     61 H61         -3.1149  -0.6014   3.9284 H              1 <1>                0.0000
     62 H62         -1.6289  -0.5188   4.9046 H              1 <1>                0.0000
     63 H63         -2.1275   0.8796   3.9226 H              1 <1>                0.0000
     64 H64          0.0965  -2.2895   5.0944 H              1 <1>                0.0000
     65 H65          0.5111  -3.2361   1.0781 H              1 <1>                0.0000
     66 H66         -0.2189  -5.0487   3.4196 H              1 <1>                0.0000
     67 H67         -0.8354  -5.0824   1.7336 H              1 <1>                0.0000
     68 H68          1.0877  -6.8560   2.4597 H              1 <1>                0.0000
     69 H69          1.2383  -6.0133   0.8819 H              1 <1>                0.0000
     70 H70          2.6284  -5.3983   3.5276 H              1 <1>                0.0000
     71 H71          3.3067  -5.3696   1.8741 H              1 <1>                0.0000
     72 H72          2.8878  -0.7007   3.4075 H              1 <1>                0.0000
     73 H73          2.2725  -1.1615   0.4559 H              1 <1>                0.0000
     74 H74          2.2306   0.4231   1.2656 H              1 <1>                0.0000
     75 H75          4.3104   1.3731   2.2206 H              1 <1>                0.0000
     76 H76          6.7434   1.5945   1.9135 H              1 <1>                0.0000
     77 H77          7.9767  -0.0852   0.6017 H              1 <1>                0.0000
     78 H78          6.7770  -1.9867  -0.4024 H              1 <1>                0.0000
     79 H79          4.3447  -2.2105  -0.0915 H              1 <1>                0.0000
@<TRIPOS>BOND
    1    1    2 1     
    2    1   46 1     
    3    1   47 1     
    4    1   48 1     
    5    2    3 1     
    6    2    8 1     
    7    2    4 1     
    8    4    5 1     
    9    4   49 1     
   10    4   50 1     
   11    5    6 1     
   12    5   20 1     
   13    5   51 1     
   14    6    7 2     
   15    6   52 1     
   16    7   18 1     
   17    7    8 1     
   18    8    9 1     
   19    8   53 1     
   20    9   10 1     
   21    9   54 1     
   22    9   55 1     
   23   10   19 1     
   24   10   11 2     
   25   11   12 1     
   26   11   56 1     
   27   12   13 1     
   28   12   14 1     
   29   14   19 ar    
   30   14   15 ar    
   31   15   16 ar    
   32   15   57 1     
   33   16   17 ar    
   34   16   58 1     
   35   17   18 ar    
   36   17   59 1     
   37   18   19 ar    
   38   20   21 2     
   39   20   22 am    
   40   22   23 1     
   41   22   60 1     
   42   23   44 1     
   43   23   24 1     
   44   23   25 1     
   45   24   61 1     
   46   24   62 1     
   47   24   63 1     
   48   25   26 1     
   49   26   43 1     
   50   26   27 1     
   51   26   28 1     
   52   27   64 1     
   53   28   32 1     
   54   28   29 1     
   55   28   65 1     
   56   29   30 1     
   57   29   66 1     
   58   29   67 1     
   59   30   31 1     
   60   30   68 1     
   61   30   69 1     
   62   31   32 1     
   63   31   70 1     
   64   31   71 1     
   65   32   33 am    
   66   33   34 2     
   67   33   35 1     
   68   35   36 1     
   69   35   43 1     
   70   35   72 1     
   71   36   37 1     
   72   36   73 1     
   73   36   74 1     
   74   37   42 ar    
   75   37   38 ar    
   76   38   39 ar    
   77   38   75 1     
   78   39   40 ar    
   79   39   76 1     
   80   40   41 ar    
   81   40   77 1     
   82   41   42 ar    
   83   41   78 1     
   84   42   79 1     
   85   43   44 am    
   86   44   45 2     
@<TRIPOS>SUBSTRUCTURE
      1 ****           1
@<TRIPOS>SET
DONOR_HYDROGENS      STATIC     ATOMS    <user>   **** ""
4 3 13 60 64
ATOM$RED        STATIC     ATOMS    COLORGROUP SYSTEM
4 3 13 60 64
