#       Name:                ETC
#       Creating user name   gbret
#       Creation time:       Fri Sep  9 07:32:32 2016


#       File generated by GOLD software.
#

@<TRIPOS>MOLECULE
ETC
    48    51     1
SMALL
NO_CHARGES


@<TRIPOS>ATOM
      1 C1          -1.0820   3.9096   0.9932 C.3            1 <1>                0.0000
      2 C2          -1.0612   2.3797   0.9848 C.3            1 <1>                0.0000
      3 C3          -0.3451   1.8863  -0.2740 C.3            1 <1>                0.0000
      4 C4           1.1111   2.3417  -0.2342 C.3            1 <1>                0.0000
      5 C5           1.8568   1.5857   0.8337 C.ar           1 <1>                0.0000
      6 C6           2.8586   2.1968   1.5542 C.ar           1 <1>                0.0000
      7 C7           3.5509   1.4828   2.5246 C.ar           1 <1>                0.0000
      8 O8           4.5373   2.0887   3.2357 O.3            1 <1>                0.0000
      9 C9           3.2378   0.1518   2.7708 C.ar           1 <1>                0.0000
     10 C10          2.2317  -0.4652   2.0581 C.ar           1 <1>                0.0000
     11 C11          1.5283   0.2508   1.0900 C.ar           1 <1>                0.0000
     12 C12          0.4526  -0.3864   0.3093 C.2            1 <1>                0.0000
     13 C13         -0.4352   0.3852  -0.3386 C.2            1 <1>                0.0000
     14 C14         -1.5317  -0.2473  -1.0938 C.ar           1 <1>                0.0000
     15 C15         -2.2448   0.4739  -2.0530 C.ar           1 <1>                0.0000
     16 C16         -3.2565  -0.1427  -2.7582 C.ar           1 <1>                0.0000
     17 C17         -3.5633  -1.4757  -2.5163 C.ar           1 <1>                0.0000
     18 O18         -4.5560  -2.0796  -3.2204 O.3            1 <1>                0.0000
     19 C19         -2.8592  -2.1947  -1.5580 C.ar           1 <1>                0.0000
     20 C20         -1.8534  -1.5835  -0.8432 C.ar           1 <1>                0.0000
     21 C21         -1.1064  -2.3358   0.2270 C.3            1 <1>                0.0000
     22 C22          0.3514  -1.8862   0.2579 C.3            1 <1>                0.0000
     23 C23          1.0605  -2.3939  -0.9992 C.3            1 <1>                0.0000
     24 C24          1.1043  -3.9231  -0.9776 C.3            1 <1>                0.0000
     25 H25         -0.0594   4.2869   0.9855 H              1 <1>                0.0000
     26 H26         -1.6092   4.2706   0.1102 H              1 <1>                0.0000
     27 H27         -1.5922   4.2611   1.8900 H              1 <1>                0.0000
     28 H28         -0.5340   2.0187   1.8679 H              1 <1>                0.0000
     29 H29         -2.0838   2.0024   0.9926 H              1 <1>                0.0000
     30 H30         -0.8295   2.3127  -1.1524 H              1 <1>                0.0000
     31 H31          1.5757   2.1537  -1.2022 H              1 <1>                0.0000
     32 H32          1.1507   3.4091  -0.0167 H              1 <1>                0.0000
     33 H33          3.1064   3.2308   1.3648 H              1 <1>                0.0000
     34 H34          4.2316   2.5151   4.0480 H              1 <1>                0.0000
     35 H35          3.7837  -0.4005   3.5213 H              1 <1>                0.0000
     36 H36          1.9894  -1.5002   2.2488 H              1 <1>                0.0000
     37 H37         -2.0053   1.5100  -2.2416 H              1 <1>                0.0000
     38 H38         -3.8119   0.4121  -3.4999 H              1 <1>                0.0000
     39 H39         -4.2581  -2.5005  -4.0384 H              1 <1>                0.0000
     40 H40         -3.1009  -3.2310  -1.3736 H              1 <1>                0.0000
     41 H41         -1.5663  -2.1395   1.1955 H              1 <1>                0.0000
     42 H42         -1.1511  -3.4043   0.0165 H              1 <1>                0.0000
     43 H43          0.8376  -2.3085   1.1373 H              1 <1>                0.0000
     44 H44          0.5180  -2.0583  -1.8830 H              1 <1>                0.0000
     45 H45          2.0772  -2.0016  -1.0263 H              1 <1>                0.0000
     46 H46          1.6468  -4.2586  -0.0938 H              1 <1>                0.0000
     47 H47          0.0876  -4.3153  -0.9506 H              1 <1>                0.0000
     48 H48          1.6095  -4.2847  -1.8732 H              1 <1>                0.0000
@<TRIPOS>BOND
    1    1    2 1     
    2    1   25 1     
    3    1   26 1     
    4    1   27 1     
    5    2    3 1     
    6    2   28 1     
    7    2   29 1     
    8    3   13 1     
    9    3    4 1     
   10    3   30 1     
   11    4    5 1     
   12    4   31 1     
   13    4   32 1     
   14    5   11 ar    
   15    5    6 ar    
   16    6    7 ar    
   17    6   33 1     
   18    7    8 1     
   19    7    9 ar    
   20    8   34 1     
   21    9   10 ar    
   22    9   35 1     
   23   10   11 ar    
   24   10   36 1     
   25   11   12 1     
   26   12   22 1     
   27   12   13 2     
   28   13   14 1     
   29   14   20 ar    
   30   14   15 ar    
   31   15   16 ar    
   32   15   37 1     
   33   16   17 ar    
   34   16   38 1     
   35   17   18 1     
   36   17   19 ar    
   37   18   39 1     
   38   19   20 ar    
   39   19   40 1     
   40   20   21 1     
   41   21   22 1     
   42   21   41 1     
   43   21   42 1     
   44   22   23 1     
   45   22   43 1     
   46   23   24 1     
   47   23   44 1     
   48   23   45 1     
   49   24   46 1     
   50   24   47 1     
   51   24   48 1     
@<TRIPOS>SUBSTRUCTURE
      1 ****           1
@<TRIPOS>SET
DONOR_HYDROGENS      STATIC     ATOMS    <user>   **** ""
2 34 39
ATOM$RED        STATIC     ATOMS    COLORGROUP SYSTEM
2 34 39
