#       Name:                EZL
#       Creating user name   gbret
#       Creation time:       Fri Sep  9 07:36:05 2016


#       File generated by GOLD software.
#

@<TRIPOS>MOLECULE
EZL
    26    27     1
SMALL
NO_CHARGES


@<TRIPOS>ATOM
      1 C1          -1.1786   4.9040  -1.5133 C.3            1 <1>                0.0000
      2 C2          -1.1578   3.3741  -1.5217 C.3            1 <1>                0.0000
      3 O3          -0.4667   2.9008  -0.3640 O.3            1 <1>                0.0000
      4 C4          -0.3579   1.5535  -0.2180 C.ar           1 <1>                0.0000
      5 C5          -0.9020   0.7019  -1.1758 C.ar           1 <1>                0.0000
      6 C6          -0.8010  -0.6483  -1.0432 C.ar           1 <1>                0.0000
      7 C7          -0.1413  -1.2144   0.0691 C.ar           1 <1>                0.0000
      8 N8           0.0536  -2.5148   0.3638 N.2            1 <1>                0.0000
      9 C9           0.6867  -2.8014   1.4390 C.2            1 <1>                0.0000
     10 S10          1.1555  -1.3332   2.2853 S.3            1 <1>                0.0000
     11 C11          0.4038  -0.3545   1.0279 C.ar           1 <1>                0.0000
     12 C12          0.2974   1.0271   0.8774 C.ar           1 <1>                0.0000
     13 S13          1.0388  -4.4367   1.9926 S.o2           1 <1>                0.0000
     14 N14          2.5026  -4.8675   1.3494 N.pl3          1 <1>                0.0000
     15 O15          1.2274  -4.3524   3.3985 O.2            1 <1>                0.0000
     16 O16          0.0702  -5.2823   1.3877 O.2            1 <1>                0.0000
     17 H17         -0.1560   5.2813  -1.5210 H              1 <1>                0.0000
     18 H18         -1.7058   5.2650  -2.3963 H              1 <1>                0.0000
     19 H19         -1.6888   5.2555  -0.6165 H              1 <1>                0.0000
     20 H20         -2.1804   2.9968  -1.5139 H              1 <1>                0.0000
     21 H21         -0.6476   3.0226  -2.4185 H              1 <1>                0.0000
     22 H22         -1.4102   1.1178  -2.0332 H              1 <1>                0.0000
     23 H23         -1.2299  -1.2933  -1.7959 H              1 <1>                0.0000
     24 H24          0.7246   1.6857   1.6192 H              1 <1>                0.0000
     25 H25          3.0787  -5.4856   1.8258 H              1 <1>                0.0000
     26 H26          2.7841  -4.5017   0.4962 H              1 <1>                0.0000
@<TRIPOS>BOND
    1    1    2 1     
    2    1   17 1     
    3    1   18 1     
    4    1   19 1     
    5    2    3 1     
    6    2   20 1     
    7    2   21 1     
    8    3    4 1     
    9    4   12 ar    
   10    4    5 ar    
   11    5    6 ar    
   12    5   22 1     
   13    6    7 ar    
   14    6   23 1     
   15    7   11 ar    
   16    7    8 1     
   17    8    9 2     
   18    9   10 1     
   19    9   13 1     
   20   10   11 1     
   21   11   12 ar    
   22   12   24 1     
   23   13   14 1     
   24   13   15 2     
   25   13   16 2     
   26   14   25 1     
   27   14   26 1     
@<TRIPOS>SUBSTRUCTURE
      1 ****           1
@<TRIPOS>SET
DONOR_HYDROGENS      STATIC     ATOMS    <user>   **** ""
2 25 26
ATOM$RED        STATIC     ATOMS    COLORGROUP SYSTEM
2 25 26
