#       Name:                F1H
#       Creating user name   gbret
#       Creation time:       Fri Sep  9 07:37:41 2016


#       File generated by GOLD software.
#

@<TRIPOS>MOLECULE
F1H
    45    46     1
SMALL
NO_CHARGES


@<TRIPOS>ATOM
      1 S1           4.6981   6.9862   0.0983 S.3            1 <1>                0.0000
      2 C2           4.7227   5.1724   0.0883 C.3            1 <1>                0.0000
      3 C3           3.2873   4.6429   0.0992 C.3            1 <1>                0.0000
      4 C4           3.3080   3.1130   0.0908 C.3            1 <1>                0.0000
      5 C5           1.8942   2.5914   0.1015 C.2            1 <1>                0.0000
      6 O6           0.9618   3.3669   0.1145 O.2            1 <1>                0.0000
      7 N7           1.6660   1.2631   0.0965 N.am           1 <1>                0.0000
      8 C8           0.2916   0.7560   0.1069 C.3            1 <1>                0.0000
      9 C9          -0.2427   0.6952  -1.3270 C.3            1 <1>                0.0000
     10 C10         -1.6484   0.0907  -1.3165 C.3            1 <1>                0.0000
     11 N11         -1.5982  -1.2640  -0.7536 N.4            1 <1>                0.0000
     12 H12         -0.9515  -1.8252  -1.2874 H              1 <1>                0.0000
     13 C13         -2.9357  -1.8683  -0.8157 C.3            1 <1>                0.0000
     14 C14         -2.9135  -3.2092  -0.1282 C.ar           1 <1>                0.0000
     15 C15         -2.6116  -4.3501  -0.8479 C.ar           1 <1>                0.0000
     16 C16         -2.5913  -5.5800  -0.2173 C.ar           1 <1>                0.0000
     17 C17         -2.8723  -5.6690   1.1333 C.ar           1 <1>                0.0000
     18 C18         -3.1732  -4.5279   1.8533 C.ar           1 <1>                0.0000
     19 C19         -3.1894  -3.2975   1.2235 C.ar           1 <1>                0.0000
     20 C20         -1.1550  -1.2062   0.6445 C.3            1 <1>                0.0000
     21 C21          0.2696  -0.6516   0.7095 C.3            1 <1>                0.0000
     22 H22          6.0043   7.3066   0.0875 H              1 <1>                0.0000
     23 H23          5.2329   4.8209  -0.8085 H              1 <1>                0.0000
     24 H24          5.2499   4.8114   0.9714 H              1 <1>                0.0000
     25 H25          2.7771   4.9944   0.9960 H              1 <1>                0.0000
     26 H26          2.7601   5.0039  -0.7839 H              1 <1>                0.0000
     27 H27          3.8182   2.7615  -0.8060 H              1 <1>                0.0000
     28 H28          3.8352   2.7519   0.9738 H              1 <1>                0.0000
     29 H29          2.4117   0.6429   0.0861 H              1 <1>                0.0000
     30 H30         -0.3366   1.4177   0.7034 H              1 <1>                0.0000
     31 H31         -0.2824   1.7016  -1.7436 H              1 <1>                0.0000
     32 H32          0.4159   0.0746  -1.9347 H              1 <1>                0.0000
     33 H33         -2.3061   0.7121  -0.7088 H              1 <1>                0.0000
     34 H34         -2.0318   0.0461  -2.3359 H              1 <1>                0.0000
     35 H35         -3.6526  -1.2161  -0.3170 H              1 <1>                0.0000
     36 H36         -3.2272  -1.9992  -1.8578 H              1 <1>                0.0000
     37 H37         -2.3921  -4.2806  -1.9031 H              1 <1>                0.0000
     38 H38         -2.3561  -6.4715  -0.7798 H              1 <1>                0.0000
     39 H39         -2.8571  -6.6300   1.6259 H              1 <1>                0.0000
     40 H40         -3.3931  -4.5974   2.9084 H              1 <1>                0.0000
     41 H41         -3.4245  -2.4060   1.7860 H              1 <1>                0.0000
     42 H42         -1.8233  -0.5572   1.2105 H              1 <1>                0.0000
     43 H43         -1.1743  -2.2083   1.0730 H              1 <1>                0.0000
     44 H44          0.9388  -1.3001   0.1441 H              1 <1>                0.0000
     45 H45          0.5961  -0.6079   1.7486 H              1 <1>                0.0000
@<TRIPOS>BOND
    1    1    2 1     
    2    1   22 1     
    3    2    3 1     
    4    2   23 1     
    5    2   24 1     
    6    3    4 1     
    7    3   25 1     
    8    3   26 1     
    9    4    5 1     
   10    4   27 1     
   11    4   28 1     
   12    5    6 2     
   13    5    7 am    
   14    7    8 1     
   15    7   29 1     
   16    8   21 1     
   17    8    9 1     
   18    8   30 1     
   19    9   10 1     
   20    9   31 1     
   21    9   32 1     
   22   10   11 1     
   23   10   33 1     
   24   10   34 1     
   25   11   12 1     
   26   11   13 1     
   27   11   20 1     
   28   13   14 1     
   29   13   35 1     
   30   13   36 1     
   31   14   19 ar    
   32   14   15 ar    
   33   15   16 ar    
   34   15   37 1     
   35   16   17 ar    
   36   16   38 1     
   37   17   18 ar    
   38   17   39 1     
   39   18   19 ar    
   40   18   40 1     
   41   19   41 1     
   42   20   21 1     
   43   20   42 1     
   44   20   43 1     
   45   21   44 1     
   46   21   45 1     
@<TRIPOS>SUBSTRUCTURE
      1 ****           1
@<TRIPOS>SET
DONOR_HYDROGENS      STATIC     ATOMS    <user>   **** ""
2 29 12
ATOM$RED        STATIC     ATOMS    COLORGROUP SYSTEM
2 29 12
