#       Name:                F58
#       Creating user name   gbret
#       Creation time:       Fri Sep  9 07:41:57 2016


#       File generated by GOLD software.
#

@<TRIPOS>MOLECULE
F58
    47    48     1
SMALL
NO_CHARGES


@<TRIPOS>ATOM
      1 O1           4.5397   0.6331   2.9194 O.3            1 <1>                0.0000
      2 C2           4.5591  -0.7958   2.9115 C.3            1 <1>                0.0000
      3 C3           3.1237  -1.3253   2.9224 C.3            1 <1>                0.0000
      4 O4           2.4683  -0.9507   1.7090 O.3            1 <1>                0.0000
      5 C5           1.1064  -1.3755   1.6263 C.3            1 <1>                0.0000
      6 N6           0.5276  -0.9170   0.3610 N.am           1 <1>                0.0000
      7 C7          -0.1663   0.2375   0.3165 C.2            1 <1>                0.0000
      8 O8          -0.3118   0.8983   1.3261 O.2            1 <1>                0.0000
      9 N9          -0.6987   0.6593  -0.8475 N.am           1 <1>                0.0000
     10 C10         -1.3926   1.8139  -0.8920 C.2            1 <1>                0.0000
     11 O11         -1.5378   2.4731   0.1151 O.2            1 <1>                0.0000
     12 C12         -1.9880   2.2855  -2.1936 C.3            1 <1>                0.0000
     13 C13         -2.9777   1.2394  -2.7104 C.3            1 <1>                0.0000
     14 C14         -3.5821   1.7183  -4.0319 C.3            1 <1>                0.0000
     15 C15         -4.3121   3.0441  -3.8080 C.3            1 <1>                0.0000
     16 C16         -3.3225   4.0902  -3.2912 C.3            1 <1>                0.0000
     17 C17         -2.7180   3.6114  -1.9697 C.3            1 <1>                0.0000
     18 C18          1.0452  -2.9038   1.6916 C.3            1 <1>                0.0000
     19 O19          1.7390  -3.4579   0.5720 O.3            1 <1>                0.0000
     20 C20          1.7061  -3.3785   2.9894 C.3            1 <1>                0.0000
     21 O21          1.7190  -4.8070   3.0245 O.3            1 <1>                0.0000
     22 C22          3.1435  -2.8516   3.0398 C.3            1 <1>                0.0000
     23 O23          3.8929  -3.4043   1.9558 O.3            1 <1>                0.0000
     24 H24          5.4176   1.0384   2.9132 H              1 <1>                0.0000
     25 H25          5.0693  -1.1473   2.0147 H              1 <1>                0.0000
     26 H26          5.0863  -1.1568   3.7946 H              1 <1>                0.0000
     27 H27          2.5866  -0.9024   3.7714 H              1 <1>                0.0000
     28 H28          0.5427  -0.9531   2.4581 H              1 <1>                0.0000
     29 H29          0.6437  -1.4444  -0.4448 H              1 <1>                0.0000
     30 H30         -0.5826   0.1319  -1.6533 H              1 <1>                0.0000
     31 H31         -1.1936   2.4274  -2.9263 H              1 <1>                0.0000
     32 H32         -2.4576   0.2949  -2.8699 H              1 <1>                0.0000
     33 H33         -3.7721   1.0976  -1.9777 H              1 <1>                0.0000
     34 H34         -2.7877   1.8601  -4.7646 H              1 <1>                0.0000
     35 H35         -4.2872   0.9730  -4.4001 H              1 <1>                0.0000
     36 H36         -4.7428   3.3853  -4.7494 H              1 <1>                0.0000
     37 H37         -5.1066   2.9023  -3.0753 H              1 <1>                0.0000
     38 H38         -2.5280   4.2321  -4.0238 H              1 <1>                0.0000
     39 H39         -3.8425   5.0348  -3.1317 H              1 <1>                0.0000
     40 H40         -3.5124   3.4696  -1.2370 H              1 <1>                0.0000
     41 H41         -2.0129   4.3567  -1.6015 H              1 <1>                0.0000
     42 H42          0.0046  -3.2279   1.6720 H              1 <1>                0.0000
     43 H43          1.3765  -3.1946  -0.2850 H              1 <1>                0.0000
     44 H44          1.1466  -2.9978   3.8439 H              1 <1>                0.0000
     45 H45          0.8404  -5.2093   2.9888 H              1 <1>                0.0000
     46 H46          3.6036  -3.1383   3.9854 H              1 <1>                0.0000
     47 H47          3.9430  -4.3699   1.9643 H              1 <1>                0.0000
@<TRIPOS>BOND
    1    1    2 1     
    2    1   24 1     
    3    2    3 1     
    4    2   25 1     
    5    2   26 1     
    6    3   22 1     
    7    3    4 1     
    8    3   27 1     
    9    4    5 1     
   10    5    6 1     
   11    5   18 1     
   12    5   28 1     
   13    6    7 1     
   14    6   29 1     
   15    7    8 2     
   16    7    9 1     
   17    9   10 1     
   18    9   30 1     
   19   10   11 2     
   20   10   12 1     
   21   12   17 1     
   22   12   13 1     
   23   12   31 1     
   24   13   14 1     
   25   13   32 1     
   26   13   33 1     
   27   14   15 1     
   28   14   34 1     
   29   14   35 1     
   30   15   16 1     
   31   15   36 1     
   32   15   37 1     
   33   16   17 1     
   34   16   38 1     
   35   16   39 1     
   36   17   40 1     
   37   17   41 1     
   38   18   19 1     
   39   18   20 1     
   40   18   42 1     
   41   19   43 1     
   42   20   21 1     
   43   20   22 1     
   44   20   44 1     
   45   21   45 1     
   46   22   23 1     
   47   22   46 1     
   48   23   47 1     
@<TRIPOS>SUBSTRUCTURE
      1 ****           1
@<TRIPOS>SET
DONOR_HYDROGENS      STATIC     ATOMS    <user>   **** ""
6 24 29 30 43 45 47
ATOM$RED        STATIC     ATOMS    COLORGROUP SYSTEM
6 24 29 30 43 45 47
