#       Name:                FAV
#       Creating user name   gbret
#       Creation time:       Fri Sep  9 07:47:11 2016


#       File generated by GOLD software.
#

@<TRIPOS>MOLECULE
FAV
    38    41     1
SMALL
NO_CHARGES


@<TRIPOS>ATOM
      1 C1           0.2132  -2.5444  -4.1370 C.3            1 <1>                0.0000
      2 N2           0.2065  -1.8183  -2.8647 N.am           1 <1>                0.0000
      3 C3           0.1250  -2.4959  -1.7025 C.2            1 <1>                0.0000
      4 O4           0.1413  -3.7132  -1.7052 O.2            1 <1>                0.0000
      5 C5           0.0168  -1.7682  -0.4370 C.2            1 <1>                0.0000
      6 C6           0.0309  -2.3413   0.8037 C.2            1 <1>                0.0000
      7 C7          -0.0841  -1.4725   1.8517 C.2            1 <1>                0.0000
      8 C8          -0.1094  -1.8175   3.3333 C.3            1 <1>                0.0000
      9 O9           0.3872  -0.7074   4.0808 O.3            1 <1>                0.0000
     10 C10         -0.0283   0.5504   3.8012 C.ar           1 <1>                0.0000
     11 C11         -0.1731   1.4943   4.8040 C.ar           1 <1>                0.0000
     12 C12         -0.5821   2.7774   4.4926 C.ar           1 <1>                0.0000
     13 C13         -0.8504   3.1385   3.1832 C.ar           1 <1>                0.0000
     14 C14         -0.7191   2.2094   2.1677 C.ar           1 <1>                0.0000
     15 C15         -0.3178   0.9191   2.4737 C.ar           1 <1>                0.0000
     16 C16         -0.1921  -0.1456   1.4581 C.2            1 <1>                0.0000
     17 S17         -0.1436  -0.0228  -0.2830 S.3            1 <1>                0.0000
     18 C18          0.2848  -0.4216  -2.8560 C.ar           1 <1>                0.0000
     19 C19         -0.8755   0.3407  -2.8907 C.ar           1 <1>                0.0000
     20 C20         -0.7950   1.7194  -2.8815 C.ar           1 <1>                0.0000
     21 C21          0.4393   2.3417  -2.8379 C.ar           1 <1>                0.0000
     22 C22          1.5970   1.5865  -2.8032 C.ar           1 <1>                0.0000
     23 C23          1.5237   0.2063  -2.8068 C.ar           1 <1>                0.0000
     24 Cl24         2.9774  -0.7416  -2.7633 Cl             1 <1>                0.0000
     25 H25         -0.8125  -2.7451  -4.4462 H              1 <1>                0.0000
     26 H26          0.7104  -1.9414  -4.8969 H              1 <1>                0.0000
     27 H27          0.7469  -3.4869  -4.0147 H              1 <1>                0.0000
     28 H28          0.1261  -3.4076   0.9458 H              1 <1>                0.0000
     29 H29         -1.1329  -2.0343   3.6395 H              1 <1>                0.0000
     30 H30          0.5188  -2.6895   3.5151 H              1 <1>                0.0000
     31 H31          0.0332   1.2277   5.8300 H              1 <1>                0.0000
     32 H32         -0.6940   3.5074   5.2806 H              1 <1>                0.0000
     33 H33         -1.1629   4.1468   2.9548 H              1 <1>                0.0000
     34 H34         -0.9279   2.4870   1.1451 H              1 <1>                0.0000
     35 H35         -1.8399  -0.1442  -2.9252 H              1 <1>                0.0000
     36 H36         -1.6972   2.3124  -2.9089 H              1 <1>                0.0000
     37 H37          0.4991   3.4200  -2.8312 H              1 <1>                0.0000
     38 H38          2.5594   2.0756  -2.7692 H              1 <1>                0.0000
@<TRIPOS>BOND
    1    1    2 1     
    2    1   25 1     
    3    1   26 1     
    4    1   27 1     
    5    2    3 am    
    6    2   18 1     
    7    3    4 2     
    8    3    5 1     
    9    5   17 1     
   10    5    6 2     
   11    6    7 1     
   12    6   28 1     
   13    7   16 2     
   14    7    8 1     
   15    8    9 1     
   16    8   29 1     
   17    8   30 1     
   18    9   10 1     
   19   10   15 ar    
   20   10   11 ar    
   21   11   12 ar    
   22   11   31 1     
   23   12   13 ar    
   24   12   32 1     
   25   13   14 ar    
   26   13   33 1     
   27   14   15 ar    
   28   14   34 1     
   29   15   16 1     
   30   16   17 1     
   31   18   23 ar    
   32   18   19 ar    
   33   19   20 ar    
   34   19   35 1     
   35   20   21 ar    
   36   20   36 1     
   37   21   22 ar    
   38   21   37 1     
   39   22   23 ar    
   40   22   38 1     
   41   23   24 1     
@<TRIPOS>SUBSTRUCTURE
      1 ****           1
