#       Name:                FBO
#       Creating user name   gbret
#       Creation time:       Fri Sep  9 07:48:25 2016


#       File generated by GOLD software.
#

@<TRIPOS>MOLECULE
FBO
    63    64     1
SMALL
NO_CHARGES


@<TRIPOS>ATOM
      1 N1           2.2005   2.0184  -4.7739 N.4            1 <1>                0.0000
      2 H2           2.2142   1.0095  -4.7795 H              1 <1>                0.0000
      3 H3           3.1471   2.3677  -4.7811 H              1 <1>                0.0000
      4 H4           1.7125   2.3527  -5.5914 H              1 <1>                0.0000
      5 C5           1.5129   2.4922  -3.5653 C.3            1 <1>                0.0000
      6 C6           1.4922   4.0220  -3.5569 C.3            1 <1>                0.0000
      7 C7           2.9017   4.5429  -3.4437 C.ar           1 <1>                0.0000
      8 C8           3.4573   4.7686  -2.1982 C.ar           1 <1>                0.0000
      9 C9           4.7502   5.2464  -2.0944 C.ar           1 <1>                0.0000
     10 C10          5.4879   5.4981  -3.2361 C.ar           1 <1>                0.0000
     11 C11          4.9327   5.2715  -4.4816 C.ar           1 <1>                0.0000
     12 C12          3.6412   4.7896  -4.5853 C.ar           1 <1>                0.0000
     13 C13          0.0991   1.9705  -3.5546 C.2            1 <1>                0.0000
     14 O14         -0.4166   1.5951  -4.5861 O.2            1 <1>                0.0000
     15 N15         -0.5923   1.9213  -2.3987 N.am           1 <1>                0.0000
     16 C16         -1.9667   1.4142  -2.3883 C.3            1 <1>                0.0000
     17 C17         -2.3026   0.8799  -0.9946 C.3            1 <1>                0.0000
     18 C18         -1.4215  -0.3325  -0.6871 C.3            1 <1>                0.0000
     19 C19         -1.7575  -0.8668   0.7067 C.3            1 <1>                0.0000
     20 C20         -0.8764  -2.0792   1.0141 C.3            1 <1>                0.0000
     21 N21         -1.1981  -2.5908   2.3487 N.am           1 <1>                0.0000
     22 C22         -0.5425  -3.6631   2.8354 C.2            1 <1>                0.0000
     23 O23          0.3154  -4.2055   2.1673 O.2            1 <1>                0.0000
     24 O24         -0.8381  -4.1332   4.0619 O.3            1 <1>                0.0000
     25 C25         -0.0922  -5.2911   4.5215 C.3            1 <1>                0.0000
     26 C26         -0.5561  -5.6712   5.9040 C.ar           1 <1>                0.0000
     27 C27          0.0548  -5.1191   7.0142 C.ar           1 <1>                0.0000
     28 C28         -0.3708  -5.4678   8.2824 C.ar           1 <1>                0.0000
     29 C29         -1.4077  -6.3682   8.4402 C.ar           1 <1>                0.0000
     30 C30         -2.0192  -6.9197   7.3299 C.ar           1 <1>                0.0000
     31 C31         -1.5965  -6.5677   6.0617 C.ar           1 <1>                0.0000
     32 C32         -2.9164   2.5298  -2.7410 C.2            1 <1>                0.0000
     33 O33         -2.4875   3.6393  -2.9778 O.2            1 <1>                0.0000
     34 N34         -4.2425   2.2947  -2.7934 N.am           1 <1>                0.0000
     35 O35         -5.1349   3.3430  -3.1248 O.3            1 <1>                0.0000
     36 H36          2.0401   2.1311  -2.6823 H              1 <1>                0.0000
     37 H37          1.0441   4.3844  -4.4821 H              1 <1>                0.0000
     38 H38          0.9059   4.3728  -2.7076 H              1 <1>                0.0000
     39 H39          2.8810   4.5720  -1.3062 H              1 <1>                0.0000
     40 H40          5.1840   5.4234  -1.1213 H              1 <1>                0.0000
     41 H41          6.4978   5.8720  -3.1550 H              1 <1>                0.0000
     42 H42          5.5088   5.4684  -5.3736 H              1 <1>                0.0000
     43 H43          3.2074   4.6126  -5.5584 H              1 <1>                0.0000
     44 H44         -0.1799   2.2216  -1.5737 H              1 <1>                0.0000
     45 H45         -2.0630   0.6106  -3.1185 H              1 <1>                0.0000
     46 H46         -2.1210   1.6584  -0.2535 H              1 <1>                0.0000
     47 H47         -3.3514   0.5846  -0.9617 H              1 <1>                0.0000
     48 H48         -1.6032  -1.1110  -1.4281 H              1 <1>                0.0000
     49 H49         -0.3728  -0.0372  -0.7200 H              1 <1>                0.0000
     50 H50         -1.5758  -0.0884   1.4477 H              1 <1>                0.0000
     51 H51         -2.8062  -1.1621   0.7395 H              1 <1>                0.0000
     52 H52         -1.0580  -2.8577   0.2731 H              1 <1>                0.0000
     53 H53          0.1724  -1.7840   0.9812 H              1 <1>                0.0000
     54 H54         -1.8829  -2.1578   2.8820 H              1 <1>                0.0000
     55 H55         -0.2596  -6.1251   3.8399 H              1 <1>                0.0000
     56 H56          0.9708  -5.0514   4.5481 H              1 <1>                0.0000
     57 H57          0.8649  -4.4156   6.8909 H              1 <1>                0.0000
     58 H58          0.1071  -5.0369   9.1498 H              1 <1>                0.0000
     59 H59         -1.7397  -6.6412   9.4310 H              1 <1>                0.0000
     60 H60         -2.8291  -7.6234   7.4533 H              1 <1>                0.0000
     61 H61         -2.0743  -6.9986   5.1943 H              1 <1>                0.0000
     62 H62         -4.5855   1.4074  -2.6040 H              1 <1>                0.0000
     63 H63         -6.0649   3.0786  -3.1371 H              1 <1>                0.0000
@<TRIPOS>BOND
    1    1    2 1     
    2    1    3 1     
    3    1    4 1     
    4    1    5 1     
    5    5    6 1     
    6    5   13 1     
    7    5   36 1     
    8    6    7 1     
    9    6   37 1     
   10    6   38 1     
   11    7   12 ar    
   12    7    8 ar    
   13    8    9 ar    
   14    8   39 1     
   15    9   10 ar    
   16    9   40 1     
   17   10   11 ar    
   18   10   41 1     
   19   11   12 ar    
   20   11   42 1     
   21   12   43 1     
   22   13   14 2     
   23   13   15 am    
   24   15   16 1     
   25   15   44 1     
   26   16   17 1     
   27   16   32 1     
   28   16   45 1     
   29   17   18 1     
   30   17   46 1     
   31   17   47 1     
   32   18   19 1     
   33   18   48 1     
   34   18   49 1     
   35   19   20 1     
   36   19   50 1     
   37   19   51 1     
   38   20   21 1     
   39   20   52 1     
   40   20   53 1     
   41   21   22 am    
   42   21   54 1     
   43   22   23 2     
   44   22   24 1     
   45   24   25 1     
   46   25   26 1     
   47   25   55 1     
   48   25   56 1     
   49   26   31 ar    
   50   26   27 ar    
   51   27   28 ar    
   52   27   57 1     
   53   28   29 ar    
   54   28   58 1     
   55   29   30 ar    
   56   29   59 1     
   57   30   31 ar    
   58   30   60 1     
   59   31   61 1     
   60   32   33 2     
   61   32   34 am    
   62   34   35 1     
   63   34   62 1     
   64   35   63 1     
@<TRIPOS>SUBSTRUCTURE
      1 ****           1
@<TRIPOS>SET
DONOR_HYDROGENS      STATIC     ATOMS    <user>   **** ""
7 2 3 4 44 54 62 63
ATOM$RED        STATIC     ATOMS    COLORGROUP SYSTEM
7 2 3 4 44 54 62 63
