#       Name:                FCF
#       Creating user name   gbret
#       Creation time:       Fri Sep  9 07:49:47 2016


#       File generated by GOLD software.
#

@<TRIPOS>MOLECULE
FCF
    38    39     1
SMALL
NO_CHARGES


@<TRIPOS>ATOM
      1 O1           7.7566  -0.2523  -0.9974 O.co2          1 <1>                0.0000
      2 C2           7.7400   0.9705  -0.9907 C.2            1 <1>                0.0000
      3 O3           8.7906   1.5963  -0.9973 O.co2          1 <1>                0.0000
      4 C4           6.4522   1.6909  -0.9806 C.ar           1 <1>                0.0000
      5 C5           6.4311   3.0890  -0.9787 C.ar           1 <1>                0.0000
      6 C6           5.2273   3.7639  -0.9688 C.ar           1 <1>                0.0000
      7 C7           4.0361   3.0649  -0.9612 C.ar           1 <1>                0.0000
      8 C8           4.0418   1.6678  -0.9635 C.ar           1 <1>                0.0000
      9 C9           2.7670   0.9226  -0.9559 C.2            1 <1>                0.0000
     10 N10          1.6436   1.5632  -0.9471 N.2            1 <1>                0.0000
     11 O11          0.4211   0.8487  -0.9398 O.3            1 <1>                0.0000
     12 C12         -0.7394   1.6824  -0.9305 C.3            1 <1>                0.0000
     13 C13         -1.9952   0.8084  -0.9232 C.3            1 <1>                0.0000
     14 O14         -2.0525   0.0670   0.2971 O.3            1 <1>                0.0000
     15 N15         -3.1834  -0.7783   0.4049 N.2            1 <1>                0.0000
     16 C16         -3.3509  -1.5033   1.4641 C.2            1 <1>                0.0000
     17 C17         -4.5265  -2.3820   1.5761 C.2            1 <1>                0.0000
     18 C18         -4.7127  -3.1454   2.6928 C.2            1 <1>                0.0000
     19 C19         -5.8518  -3.9785   2.7703 C.2            1 <1>                0.0000
     20 O20         -6.0408  -4.6688   3.7559 O.2            1 <1>                0.0000
     21 N21         -6.7277  -4.0035   1.7464 N.am           1 <1>                0.0000
     22 H22         -7.5104  -4.5743   1.7975 H              1 <1>                0.0000
     23 C23         -6.5269  -3.2441   0.6545 C.2            1 <1>                0.0000
     24 O24         -7.3309  -3.2827  -0.2568 O.2            1 <1>                0.0000
     25 N25         -5.4540  -2.4380   0.5563 N.am           1 <1>                0.0000
     26 H26         -5.3281  -1.8982  -0.2397 H              1 <1>                0.0000
     27 C27          5.2531   0.9791  -0.9788 C.ar           1 <1>                0.0000
     28 H28          7.3588   3.6419  -0.9846 H              1 <1>                0.0000
     29 H29          5.2166   4.8439  -0.9667 H              1 <1>                0.0000
     30 H30          3.0978   3.5996  -0.9532 H              1 <1>                0.0000
     31 H31          2.7728  -0.1574  -0.9577 H              1 <1>                0.0000
     32 H32         -0.7285   2.3103  -0.0395 H              1 <1>                0.0000
     33 H33         -0.7408   2.3131  -1.8194 H              1 <1>                0.0000
     34 H34         -2.8788   1.4413  -1.0056 H              1 <1>                0.0000
     35 H35         -1.9625   0.1184  -1.7663 H              1 <1>                0.0000
     36 H36         -2.6281  -1.4635   2.2655 H              1 <1>                0.0000
     37 H37         -4.0004  -3.1133   3.5040 H              1 <1>                0.0000
     38 H38          5.2632  -0.1009  -0.9806 H              1 <1>                0.0000
@<TRIPOS>BOND
    1    1    2 ar    
    2    2    3 ar    
    3    2    4 1     
    4    4   27 ar    
    5    4    5 ar    
    6    5    6 ar    
    7    5   28 1     
    8    6    7 ar    
    9    6   29 1     
   10    7    8 ar    
   11    7   30 1     
   12    8    9 1     
   13    8   27 ar    
   14    9   10 2     
   15    9   31 1     
   16   10   11 1     
   17   11   12 1     
   18   12   13 1     
   19   12   32 1     
   20   12   33 1     
   21   13   14 1     
   22   13   34 1     
   23   13   35 1     
   24   14   15 1     
   25   15   16 2     
   26   16   17 1     
   27   16   36 1     
   28   17   25 1     
   29   17   18 2     
   30   18   19 1     
   31   18   37 1     
   32   19   20 2     
   33   19   21 1     
   34   21   22 1     
   35   21   23 1     
   36   23   24 2     
   37   23   25 1     
   38   25   26 1     
   39   27   38 1     
@<TRIPOS>SUBSTRUCTURE
      1 ****           1
@<TRIPOS>SET
DONOR_HYDROGENS      STATIC     ATOMS    <user>   **** ""
2 22 26
ATOM$RED        STATIC     ATOMS    COLORGROUP SYSTEM
2 22 26
