#       Name:                FCX
#       Creating user name   gbret
#       Creation time:       Fri Sep  9 07:50:34 2016


#       File generated by GOLD software.
#

@<TRIPOS>MOLECULE
FCX
    84    86     1
SMALL
NO_CHARGES


@<TRIPOS>ATOM
      1 C1           2.0993  -1.3155  -2.3738 C.3            1 <1>                0.0000
      2 C2           2.0511  -2.8236  -2.1201 C.3            1 <1>                0.0000
      3 C3           2.8857  -3.1595  -0.8826 C.3            1 <1>                0.0000
      4 C4           0.6016  -3.2560  -1.8905 C.3            1 <1>                0.0000
      5 O5           0.0723  -2.5652  -0.7570 O.3            1 <1>                0.0000
      6 P6          -1.4325  -2.7769  -0.2252 P.3            1 <1>                0.0000
      7 O7          -2.4312  -2.2777  -1.2931 O.co2          1 <1>                0.0000
      8 O8          -1.6764  -4.2782   0.0462 O.co2          1 <1>                0.0000
      9 O9          -1.6425  -1.9444   1.1367 O.3            1 <1>                0.0000
     10 P10         -2.6986  -2.0309   2.3489 P.3            1 <1>                0.0000
     11 O11         -4.0573  -1.4559   1.8902 O.co2          1 <1>                0.0000
     12 O12         -2.8795  -3.5063   2.7700 O.co2          1 <1>                0.0000
     13 O13         -2.1502  -1.1790   3.6002 O.3            1 <1>                0.0000
     14 C14         -2.8108  -1.1435   4.8669 C.3            1 <1>                0.0000
     15 C15         -2.0277  -0.2441   5.8254 C.3            1 <1>                0.0000
     16 O16         -2.1343   1.1376   5.4185 O.3            1 <1>                0.0000
     17 C17         -1.8160   1.9073   6.5984 C.3            1 <1>                0.0000
     18 C18         -2.5107   1.1587   7.7574 C.3            1 <1>                0.0000
     19 O19         -3.7960   1.7251   8.0202 O.3            1 <1>                0.0000
     20 C20         -2.6532  -0.2892   7.2372 C.3            1 <1>                0.0000
     21 O21         -4.0309  -0.6612   7.1628 O.3            1 <1>                0.0000
     22 P22         -4.6437  -1.9191   7.9591 P.3            1 <1>                0.0000
     23 O23         -4.5497  -1.6573   9.5009 O.co2          1 <1>                0.0000
     24 O24         -6.1443  -2.1136   7.5530 O.co2          1 <1>                0.0000
     25 O25         -3.8336  -3.2106   7.5983 O.co2          1 <1>                0.0000
     26 N26         -0.3666   1.9414   6.8094 N.pl3          1 <1>                0.0000
     27 C27          0.5485   1.0930   6.2607 C.2            1 <1>                0.0000
     28 N28          1.7452   1.4104   6.6616 N.2            1 <1>                0.0000
     29 C29          1.6743   2.4794   7.4907 C.ar           1 <1>                0.0000
     30 C30          2.6153   3.2391   8.2067 C.ar           1 <1>                0.0000
     31 N31          3.9646   2.9385   8.1420 N.pl3          1 <1>                0.0000
     32 N32          2.1794   4.2529   8.9468 N.ar           1 <1>                0.0000
     33 C33          0.8936   4.5474   9.0141 C.ar           1 <1>                0.0000
     34 N34         -0.0227   3.8643   8.3613 N.ar           1 <1>                0.0000
     35 C35          0.3192   2.8366   7.5907 C.ar           1 <1>                0.0000
     36 C36          2.6178  -3.5632  -3.3337 C.3            1 <1>                0.0000
     37 O37          2.4921  -4.9726  -3.1339 O.3            1 <1>                0.0000
     38 C38          1.8541  -3.1609  -4.5689 C.2            1 <1>                0.0000
     39 O39          1.0799  -3.9397  -5.0837 O.2            1 <1>                0.0000
     40 N40          2.0313  -1.9356  -5.1016 N.am           1 <1>                0.0000
     41 C41          1.2133  -1.5057  -6.2383 C.3            1 <1>                0.0000
     42 C42          1.6127  -0.0861  -6.6461 C.3            1 <1>                0.0000
     43 C43          0.7712   0.3561  -7.8154 C.2            1 <1>                0.0000
     44 O44         -0.0656  -0.3906  -8.2772 O.2            1 <1>                0.0000
     45 N45          0.9484   1.5814  -8.3481 N.am           1 <1>                0.0000
     46 C46          0.1304   2.0113  -9.4848 C.3            1 <1>                0.0000
     47 C47          0.5298   3.4309  -9.8926 C.3            1 <1>                0.0000
     48 C48         -0.3246   3.8799 -11.0798 C.3            1 <1>                0.0000
     49 F49         -1.6630   3.9715 -10.6830 F              1 <1>                0.0000
     50 C50          0.1505   5.2272 -11.5595 C.2            1 <1>                0.0000
     51 O51          1.2285   5.3294 -12.1197 O.co2          1 <1>                0.0000
     52 O52         -0.5432   6.2149 -11.3874 O.co2          1 <1>                0.0000
     53 H53          3.1361  -0.9991  -2.4875 H              1 <1>                0.0000
     54 H54          1.5464  -1.0823  -3.2838 H              1 <1>                0.0000
     55 H55          1.6496  -0.7907  -1.5309 H              1 <1>                0.0000
     56 H56          2.4317  -2.7027  -0.0032 H              1 <1>                0.0000
     57 H57          2.9228  -4.2410  -0.7520 H              1 <1>                0.0000
     58 H58          3.8972  -2.7741  -1.0110 H              1 <1>                0.0000
     59 H59          0.0070  -3.0167  -2.7721 H              1 <1>                0.0000
     60 H60          0.5673  -4.3304  -1.7097 H              1 <1>                0.0000
     61 H61         -3.8188  -0.7487   4.7400 H              1 <1>                0.0000
     62 H62         -2.8645  -2.1519   5.2771 H              1 <1>                0.0000
     63 H63         -0.9824  -0.5505   5.8635 H              1 <1>                0.0000
     64 H64         -2.2112   2.9192   6.5094 H              1 <1>                0.0000
     65 H65         -1.8920   1.1852   8.6544 H              1 <1>                0.0000
     66 H66         -3.7689   2.6526   8.2923 H              1 <1>                0.0000
     67 H67         -2.1039  -0.9805   7.8763 H              1 <1>                0.0000
     68 H68          0.3148   0.2774   5.5923 H              1 <1>                0.0000
     69 H69          4.2705   2.1960   7.5978 H              1 <1>                0.0000
     70 H70          4.6044   3.4702   8.6408 H              1 <1>                0.0000
     71 H71          0.5824   5.3796   9.6281 H              1 <1>                0.0000
     72 H72          3.6698  -3.3061  -3.4571 H              1 <1>                0.0000
     73 H73          1.5807  -5.2734  -3.0164 H              1 <1>                0.0000
     74 H74          2.7006  -1.3384  -4.7323 H              1 <1>                0.0000
     75 H75          1.3725  -2.1831  -7.0773 H              1 <1>                0.0000
     76 H76          0.1610  -1.5197  -5.9546 H              1 <1>                0.0000
     77 H77          1.4535   0.5913  -5.8071 H              1 <1>                0.0000
     78 H78          2.6650  -0.0721  -6.9298 H              1 <1>                0.0000
     79 H79          1.6177   2.1786  -7.9788 H              1 <1>                0.0000
     80 H80          0.2896   1.3339 -10.3238 H              1 <1>                0.0000
     81 H81         -0.9219   1.9973  -9.2011 H              1 <1>                0.0000
     82 H82          0.3706   4.1083  -9.0536 H              1 <1>                0.0000
     83 H83          1.5821   3.4449 -10.1764 H              1 <1>                0.0000
     84 H84         -0.2341   3.1539 -11.8878 H              1 <1>                0.0000
@<TRIPOS>BOND
    1    1    2 1     
    2    1   53 1     
    3    1   54 1     
    4    1   55 1     
    5    2    3 1     
    6    2    4 1     
    7    2   36 1     
    8    3   56 1     
    9    3   57 1     
   10    3   58 1     
   11    4    5 1     
   12    4   59 1     
   13    4   60 1     
   14    5    6 1     
   15    6    7 ar    
   16    6    8 ar    
   17    6    9 1     
   18    9   10 1     
   19   10   11 ar    
   20   10   12 ar    
   21   10   13 1     
   22   13   14 1     
   23   14   15 1     
   24   14   61 1     
   25   14   62 1     
   26   15   20 1     
   27   15   16 1     
   28   15   63 1     
   29   16   17 1     
   30   17   18 1     
   31   17   26 1     
   32   17   64 1     
   33   18   19 1     
   34   18   20 1     
   35   18   65 1     
   36   19   66 1     
   37   20   21 1     
   38   20   67 1     
   39   21   22 1     
   40   22   23 ar    
   41   22   24 ar    
   42   22   25 ar    
   43   26   35 1     
   44   26   27 1     
   45   27   28 2     
   46   27   68 1     
   47   28   29 1     
   48   29   35 ar    
   49   29   30 ar    
   50   30   31 1     
   51   30   32 ar    
   52   31   69 1     
   53   31   70 1     
   54   32   33 ar    
   55   33   34 ar    
   56   33   71 1     
   57   34   35 ar    
   58   36   37 1     
   59   36   38 1     
   60   36   72 1     
   61   37   73 1     
   62   38   39 2     
   63   38   40 am    
   64   40   41 1     
   65   40   74 1     
   66   41   42 1     
   67   41   75 1     
   68   41   76 1     
   69   42   43 1     
   70   42   77 1     
   71   42   78 1     
   72   43   44 2     
   73   43   45 am    
   74   45   46 1     
   75   45   79 1     
   76   46   47 1     
   77   46   80 1     
   78   46   81 1     
   79   47   48 1     
   80   47   82 1     
   81   47   83 1     
   82   48   49 1     
   83   48   50 1     
   84   48   84 1     
   85   50   51 ar    
   86   50   52 ar    
@<TRIPOS>SUBSTRUCTURE
      1 ****           1
@<TRIPOS>SET
DONOR_HYDROGENS      STATIC     ATOMS    <user>   **** ""
6 66 69 70 73 74 79
ATOM$RED        STATIC     ATOMS    COLORGROUP SYSTEM
6 66 69 70 73 74 79
