#       Name:                FDS
#       Creating user name   gbret
#       Creation time:       Fri Sep  9 07:51:55 2016


#       File generated by GOLD software.
#

@<TRIPOS>MOLECULE
FDS
    38    41     1
SMALL
NO_CHARGES


@<TRIPOS>ATOM
      1 O1           0.3964   5.4249   0.0880 O.3            1 <1>                0.0000
      2 C2           0.4078   4.0744  -0.0624 C.ar           1 <1>                0.0000
      3 C3           0.3812   3.5161  -1.3329 C.ar           1 <1>                0.0000
      4 C4           0.3939   2.1439  -1.4836 C.ar           1 <1>                0.0000
      5 C5           0.4321   1.3193  -0.3722 C.ar           1 <1>                0.0000
      6 C6           0.4467  -0.1731  -0.5633 C.3            1 <1>                0.0000
      7 C7           0.9155  -0.8621   0.6895 C.ar           1 <1>                0.0000
      8 C8           1.3534  -2.1735   0.6177 C.ar           1 <1>                0.0000
      9 C9           1.7870  -2.8264   1.7541 C.ar           1 <1>                0.0000
     10 C10          1.7848  -2.1676   2.9758 C.ar           1 <1>                0.0000
     11 O11          2.2107  -2.8088   4.0958 O.3            1 <1>                0.0000
     12 C12          1.3482  -0.8554   3.0512 C.ar           1 <1>                0.0000
     13 C13          0.9132  -0.1992   1.9062 C.ar           1 <1>                0.0000
     14 O14          0.4924   1.0849   2.0005 O.3            1 <1>                0.0000
     15 C15          0.4569   1.8714   0.8984 C.ar           1 <1>                0.0000
     16 C16          0.4516   3.2526   1.0515 C.ar           1 <1>                0.0000
     17 C17         -0.9447  -0.6448  -0.8989 C.ar           1 <1>                0.0000
     18 C18         -1.9808  -0.4265  -0.0148 C.ar           1 <1>                0.0000
     19 C19         -3.2589  -0.8589  -0.3212 C.ar           1 <1>                0.0000
     20 C20         -3.5077  -1.5129  -1.5153 C.ar           1 <1>                0.0000
     21 C21         -2.4817  -1.7386  -2.4086 C.ar           1 <1>                0.0000
     22 C22         -1.1895  -1.2992  -2.1086 C.ar           1 <1>                0.0000
     23 C23         -0.0865  -1.5364  -3.0594 C.2            1 <1>                0.0000
     24 O24          0.2002  -0.6841  -3.8883 O.co2          1 <1>                0.0000
     25 O25          0.5410  -2.5852  -3.0186 O.co2          1 <1>                0.0000
     26 H26          1.2760   5.8263   0.1045 H              1 <1>                0.0000
     27 H27          0.3503   4.1549  -2.2032 H              1 <1>                0.0000
     28 H28          0.3736   1.7116  -2.4732 H              1 <1>                0.0000
     29 H29          1.1184  -0.4239  -1.3843 H              1 <1>                0.0000
     30 H30          1.3554  -2.6883  -0.3317 H              1 <1>                0.0000
     31 H31          2.1274  -3.8495   1.6927 H              1 <1>                0.0000
     32 H32          3.1571  -2.7115   4.2688 H              1 <1>                0.0000
     33 H33          1.3461  -0.3414   4.0011 H              1 <1>                0.0000
     34 H34          0.4775   3.6856   2.0405 H              1 <1>                0.0000
     35 H35         -1.7938   0.0829   0.9190 H              1 <1>                0.0000
     36 H36         -4.0662  -0.6856   0.3749 H              1 <1>                0.0000
     37 H37         -4.5078  -1.8477  -1.7480 H              1 <1>                0.0000
     38 H38         -2.6772  -2.2493  -3.3399 H              1 <1>                0.0000
@<TRIPOS>BOND
    1    1    2 1     
    2    1   26 1     
    3    2   16 ar    
    4    2    3 ar    
    5    3    4 ar    
    6    3   27 1     
    7    4    5 ar    
    8    4   28 1     
    9    5   15 ar    
   10    5    6 1     
   11    6    7 1     
   12    6   17 1     
   13    6   29 1     
   14    7   13 ar    
   15    7    8 ar    
   16    8    9 ar    
   17    8   30 1     
   18    9   10 ar    
   19    9   31 1     
   20   10   11 1     
   21   10   12 ar    
   22   11   32 1     
   23   12   13 ar    
   24   12   33 1     
   25   13   14 1     
   26   14   15 1     
   27   15   16 ar    
   28   16   34 1     
   29   17   22 ar    
   30   17   18 ar    
   31   18   19 ar    
   32   18   35 1     
   33   19   20 ar    
   34   19   36 1     
   35   20   21 ar    
   36   20   37 1     
   37   21   22 ar    
   38   21   38 1     
   39   22   23 1     
   40   23   24 ar    
   41   23   25 ar    
@<TRIPOS>SUBSTRUCTURE
      1 ****           1
@<TRIPOS>SET
DONOR_HYDROGENS      STATIC     ATOMS    <user>   **** ""
2 26 32
ATOM$RED        STATIC     ATOMS    COLORGROUP SYSTEM
2 26 32
