#       Name:                FIT
#       Creating user name   gbret
#       Creation time:       Fri Sep  9 07:57:24 2016


#       File generated by GOLD software.
#

@<TRIPOS>MOLECULE
FIT
    63    66     1
SMALL
NO_CHARGES


@<TRIPOS>ATOM
      1 C1          -4.3522  -1.2104   4.0032 C.3            1 <1>                0.0000
      2 C2          -2.8245  -1.1360   4.0419 C.3            1 <1>                0.0000
      3 C3          -2.3909   0.3052   4.3177 C.3            1 <1>                0.0000
      4 C4          -2.2973  -2.0483   5.1512 C.3            1 <1>                0.0000
      5 N5          -2.2816  -1.5710   2.7526 N.am           1 <1>                0.0000
      6 C6          -2.6114  -0.9103   1.6251 C.2            1 <1>                0.0000
      7 O7          -3.3575   0.0443   1.6778 O.2            1 <1>                0.0000
      8 C8          -2.0529  -1.3578   0.2988 C.3            1 <1>                0.0000
      9 C9          -2.9952  -0.9276  -0.8530 C.3            1 <1>                0.0000
     10 C10         -2.1426  -0.0534  -1.8129 C.3            1 <1>                0.0000
     11 C11         -0.7126  -0.5254  -1.5278 C.3            1 <1>                0.0000
     12 C12          0.3902   0.4553  -1.8784 C.3            1 <1>                0.0000
     13 C13          0.4128   0.7202  -3.3834 C.3            1 <1>                0.0000
     14 C14          1.5711   1.6618  -3.7278 C.3            1 <1>                0.0000
     15 C15          2.8850   1.0152  -3.2940 C.3            1 <1>                0.0000
     16 N16          4.0252   1.8625  -3.6369 N.am           1 <1>                0.0000
     17 C17          5.1871   1.7153  -2.9626 C.2            1 <1>                0.0000
     18 O18          6.1351   2.4356  -3.2103 O.2            1 <1>                0.0000
     19 C19          5.2962   0.6739  -1.9246 C.2            1 <1>                0.0000
     20 C20          4.1834   0.2187  -1.3434 C.2            1 <1>                0.0000
     21 C21          2.8574   0.7798  -1.7821 C.3            1 <1>                0.0000
     22 C22          2.6080   2.1092  -1.0669 C.3            1 <1>                0.0000
     23 C23          1.7213  -0.1839  -1.4479 C.3            1 <1>                0.0000
     24 C24          1.7278  -0.5104   0.0413 C.3            1 <1>                0.0000
     25 C25          0.5308  -1.3965   0.4256 C.3            1 <1>                0.0000
     26 C26         -0.7281  -0.6560   0.0194 C.3            1 <1>                0.0000
     27 C27         -0.7365   0.7360   0.6543 C.3            1 <1>                0.0000
     28 H28         -4.7277  -0.5604   3.2129 H              1 <1>                0.0000
     29 H29         -4.6611  -2.2371   3.8067 H              1 <1>                0.0000
     30 H30         -4.7561  -0.8867   4.9625 H              1 <1>                0.0000
     31 H31         -2.7948   0.6288   5.2769 H              1 <1>                0.0000
     32 H32         -1.3026   0.3582   4.3452 H              1 <1>                0.0000
     33 H33         -2.7665   0.9551   3.5274 H              1 <1>                0.0000
     34 H34         -2.6062  -3.0750   4.9547 H              1 <1>                0.0000
     35 H35         -1.2090  -1.9953   5.1787 H              1 <1>                0.0000
     36 H36         -2.7012  -1.7246   6.1105 H              1 <1>                0.0000
     37 H37         -1.6848  -2.3345   2.7104 H              1 <1>                0.0000
     38 H38         -1.9161  -2.4392   0.2928 H              1 <1>                0.0000
     39 H39         -3.3682  -1.8062  -1.3792 H              1 <1>                0.0000
     40 H40         -3.8280  -0.3460  -0.4577 H              1 <1>                0.0000
     41 H41         -2.4124  -0.2454  -2.8514 H              1 <1>                0.0000
     42 H42         -2.2547   1.0041  -1.5734 H              1 <1>                0.0000
     43 H43         -0.5334  -1.4957  -1.9909 H              1 <1>                0.0000
     44 H44          0.2383   1.3877  -1.3345 H              1 <1>                0.0000
     45 H45          0.5419  -0.2225  -3.9152 H              1 <1>                0.0000
     46 H46         -0.5289   1.1789  -3.6847 H              1 <1>                0.0000
     47 H47          1.5895   1.8389  -4.8032 H              1 <1>                0.0000
     48 H48          1.4398   2.6082  -3.2033 H              1 <1>                0.0000
     49 H49          2.9998   0.0587  -3.8039 H              1 <1>                0.0000
     50 H50          3.9489   2.5242  -4.3421 H              1 <1>                0.0000
     51 H51          6.2622   0.2847  -1.6385 H              1 <1>                0.0000
     52 H52          4.2339  -0.5376  -0.5741 H              1 <1>                0.0000
     53 H53          3.4024   2.8118  -1.3187 H              1 <1>                0.0000
     54 H54          1.6481   2.5174  -1.3831 H              1 <1>                0.0000
     55 H55          2.5960   1.9453   0.0107 H              1 <1>                0.0000
     56 H56          1.8665  -1.1094  -2.0052 H              1 <1>                0.0000
     57 H57          2.6521  -1.0328   0.2880 H              1 <1>                0.0000
     58 H58          1.6815   0.4182   0.6103 H              1 <1>                0.0000
     59 H59          0.5886  -2.3476  -0.1036 H              1 <1>                0.0000
     60 H60          0.5281  -1.5696   1.5018 H              1 <1>                0.0000
     61 H61          0.1684   1.2717   0.3674 H              1 <1>                0.0000
     62 H62         -1.6105   1.2878   0.3083 H              1 <1>                0.0000
     63 H63         -0.7735   0.6402   1.7394 H              1 <1>                0.0000
@<TRIPOS>BOND
    1    1    2 1     
    2    1   28 1     
    3    1   29 1     
    4    1   30 1     
    5    2    3 1     
    6    2    4 1     
    7    2    5 1     
    8    3   31 1     
    9    3   32 1     
   10    3   33 1     
   11    4   34 1     
   12    4   35 1     
   13    4   36 1     
   14    5    6 am    
   15    5   37 1     
   16    6    7 2     
   17    6    8 1     
   18    8   26 1     
   19    8    9 1     
   20    8   38 1     
   21    9   10 1     
   22    9   39 1     
   23    9   40 1     
   24   10   11 1     
   25   10   41 1     
   26   10   42 1     
   27   11   26 1     
   28   11   12 1     
   29   11   43 1     
   30   12   23 1     
   31   12   13 1     
   32   12   44 1     
   33   13   14 1     
   34   13   45 1     
   35   13   46 1     
   36   14   15 1     
   37   14   47 1     
   38   14   48 1     
   39   15   21 1     
   40   15   16 1     
   41   15   49 1     
   42   16   17 am    
   43   16   50 1     
   44   17   18 2     
   45   17   19 1     
   46   19   20 2     
   47   19   51 1     
   48   20   21 1     
   49   20   52 1     
   50   21   22 1     
   51   21   23 1     
   52   22   53 1     
   53   22   54 1     
   54   22   55 1     
   55   23   24 1     
   56   23   56 1     
   57   24   25 1     
   58   24   57 1     
   59   24   58 1     
   60   25   26 1     
   61   25   59 1     
   62   25   60 1     
   63   26   27 1     
   64   27   61 1     
   65   27   62 1     
   66   27   63 1     
@<TRIPOS>SUBSTRUCTURE
      1 ****           1
@<TRIPOS>SET
DONOR_HYDROGENS      STATIC     ATOMS    <user>   **** ""
2 37 50
ATOM$RED        STATIC     ATOMS    COLORGROUP SYSTEM
2 37 50
