#       Name:                FJ5
#       Creating user name   gbret
#       Creation time:       Fri Sep  9 07:57:51 2016


#       File generated by GOLD software.
#

@<TRIPOS>MOLECULE
FJ5
    67    71     1
SMALL
NO_CHARGES


@<TRIPOS>ATOM
      1 C1           2.4550   0.0607  -3.7462 C.3            1 <1>                0.0000
      2 C2           3.7448   0.8292  -3.4519 C.3            1 <1>                0.0000
      3 C3           3.5268   2.3175  -3.7316 C.3            1 <1>                0.0000
      4 C4           4.1233   0.6400  -2.0055 C.ar           1 <1>                0.0000
      5 C5           3.2566   1.0389  -1.0103 C.ar           1 <1>                0.0000
      6 C6           3.6050   0.8647   0.3279 C.ar           1 <1>                0.0000
      7 C7           2.6752   1.2921   1.3995 C.2            1 <1>                0.0000
      8 N8           2.9635   1.9930   2.4703 N.2            1 <1>                0.0000
      9 O9           1.9973   2.1893   3.1653 O.3            1 <1>                0.0000
     10 C10          0.8735   1.6456   2.6746 C.2            1 <1>                0.0000
     11 N11         -0.3896   1.6976   3.2389 N.am           1 <1>                0.0000
     12 C12         -0.5806   2.3467   4.4045 C.2            1 <1>                0.0000
     13 O13          0.3539   2.8853   4.9589 O.2            1 <1>                0.0000
     14 C14         -1.9556   2.4033   5.0189 C.3            1 <1>                0.0000
     15 C15         -2.1814   1.6272   6.3179 C.3            1 <1>                0.0000
     16 C16         -2.1074   3.1552   6.3427 C.3            1 <1>                0.0000
     17 C17          1.2288   1.0258   1.4863 C.2            1 <1>                0.0000
     18 C18          0.3687   0.2746   0.5422 C.ar           1 <1>                0.0000
     19 C19          0.5566  -1.0954   0.3625 C.ar           1 <1>                0.0000
     20 C20         -0.2475  -1.7896  -0.5182 C.ar           1 <1>                0.0000
     21 C21         -1.2384  -1.1290  -1.2222 C.ar           1 <1>                0.0000
     22 C22         -2.1135  -1.8931  -2.1821 C.3            1 <1>                0.0000
     23 N23         -3.2956  -2.3982  -1.4712 N.4            1 <1>                0.0000
     24 H24         -3.0018  -2.9427  -0.6742 H              1 <1>                0.0000
     25 C25         -4.1145  -1.2661  -1.0163 C.3            1 <1>                0.0000
     26 C26         -5.3454  -1.7949  -0.2757 C.3            1 <1>                0.0000
     27 O27         -6.0820  -2.6608  -1.1437 O.3            1 <1>                0.0000
     28 C28         -5.3190  -3.7673  -1.6330 C.3            1 <1>                0.0000
     29 C29         -4.0880  -3.2423  -2.3760 C.3            1 <1>                0.0000
     30 C30         -1.4296   0.2300  -1.0482 C.ar           1 <1>                0.0000
     31 C31         -0.6355   0.9338  -0.1660 C.ar           1 <1>                0.0000
     32 C32          4.8355   0.2846   0.6565 C.ar           1 <1>                0.0000
     33 O33          5.1809   0.1116   1.9584 O.3            1 <1>                0.0000
     34 C34          5.6994  -0.1129  -0.3495 C.ar           1 <1>                0.0000
     35 C35          5.3422   0.0590  -1.6789 C.ar           1 <1>                0.0000
     36 O36          6.1915  -0.3323  -2.6642 O.3            1 <1>                0.0000
     37 H37          2.1812   0.1975  -4.7924 H              1 <1>                0.0000
     38 H38          2.6103  -0.9997  -3.5470 H              1 <1>                0.0000
     39 H39          1.6546   0.4367  -3.1090 H              1 <1>                0.0000
     40 H40          4.5452   0.4532  -4.0891 H              1 <1>                0.0000
     41 H41          2.7264   2.6935  -3.0943 H              1 <1>                0.0000
     42 H42          4.4457   2.8650  -3.5219 H              1 <1>                0.0000
     43 H43          3.2530   2.4543  -4.7777 H              1 <1>                0.0000
     44 H44          2.3080   1.4865  -1.2677 H              1 <1>                0.0000
     45 H45         -1.1370   1.2668   2.7955 H              1 <1>                0.0000
     46 H46         -2.7842   2.4552   4.3127 H              1 <1>                0.0000
     47 H47         -3.1588   1.1682   6.4665 H              1 <1>                0.0000
     48 H48         -1.3355   1.0757   6.7282 H              1 <1>                0.0000
     49 H49         -1.2128   3.6089   6.7693 H              1 <1>                0.0000
     50 H50         -3.0361   3.7015   6.5076 H              1 <1>                0.0000
     51 H51          1.3301  -1.6121   0.9113 H              1 <1>                0.0000
     52 H52         -0.1027  -2.8506  -0.6584 H              1 <1>                0.0000
     53 H53         -2.4297  -1.2329  -2.9897 H              1 <1>                0.0000
     54 H54         -1.5530  -2.7312  -2.5963 H              1 <1>                0.0000
     55 H55         -3.5276  -0.6394  -0.3448 H              1 <1>                0.0000
     56 H56         -4.4328  -0.6784  -1.8773 H              1 <1>                0.0000
     57 H57         -5.0285  -2.3490   0.6078 H              1 <1>                0.0000
     58 H58         -5.9763  -0.9586   0.0252 H              1 <1>                0.0000
     59 H59         -5.0012  -4.3888  -0.7959 H              1 <1>                0.0000
     60 H60         -5.9309  -4.3584  -2.3145 H              1 <1>                0.0000
     61 H61         -4.4062  -2.6538  -3.2366 H              1 <1>                0.0000
     62 H62         -3.4815  -4.0826  -2.7140 H              1 <1>                0.0000
     63 H63         -2.2047   0.7403  -1.6005 H              1 <1>                0.0000
     64 H64         -0.7857   1.9948  -0.0310 H              1 <1>                0.0000
     65 H65          4.9057  -0.7381   2.3288 H              1 <1>                0.0000
     66 H66          6.6499  -0.5606  -0.0993 H              1 <1>                0.0000
     67 H67          6.0645  -1.2464  -2.9528 H              1 <1>                0.0000
@<TRIPOS>BOND
    1    1    2 1     
    2    1   37 1     
    3    1   38 1     
    4    1   39 1     
    5    2    3 1     
    6    2    4 1     
    7    2   40 1     
    8    3   41 1     
    9    3   42 1     
   10    3   43 1     
   11    4   35 ar    
   12    4    5 ar    
   13    5    6 ar    
   14    5   44 1     
   15    6    7 1     
   16    6   32 ar    
   17    7   17 1     
   18    7    8 2     
   19    8    9 1     
   20    9   10 1     
   21   10   11 1     
   22   10   17 2     
   23   11   12 am    
   24   11   45 1     
   25   12   13 2     
   26   12   14 1     
   27   14   16 1     
   28   14   15 1     
   29   14   46 1     
   30   15   16 1     
   31   15   47 1     
   32   15   48 1     
   33   16   49 1     
   34   16   50 1     
   35   17   18 1     
   36   18   31 ar    
   37   18   19 ar    
   38   19   20 ar    
   39   19   51 1     
   40   20   21 ar    
   41   20   52 1     
   42   21   22 1     
   43   21   30 ar    
   44   22   23 1     
   45   22   53 1     
   46   22   54 1     
   47   23   24 1     
   48   23   29 1     
   49   23   25 1     
   50   25   26 1     
   51   25   55 1     
   52   25   56 1     
   53   26   27 1     
   54   26   57 1     
   55   26   58 1     
   56   27   28 1     
   57   28   29 1     
   58   28   59 1     
   59   28   60 1     
   60   29   61 1     
   61   29   62 1     
   62   30   31 ar    
   63   30   63 1     
   64   31   64 1     
   65   32   33 1     
   66   32   34 ar    
   67   33   65 1     
   68   34   35 ar    
   69   34   66 1     
   70   35   36 1     
   71   36   67 1     
@<TRIPOS>SUBSTRUCTURE
      1 ****           1
@<TRIPOS>SET
DONOR_HYDROGENS      STATIC     ATOMS    <user>   **** ""
4 45 24 65 67
ATOM$RED        STATIC     ATOMS    COLORGROUP SYSTEM
4 45 24 65 67
