#       Name:                FMS
#       Creating user name   gbret
#       Creation time:       Fri Sep  9 08:02:51 2016


#       File generated by GOLD software.
#

@<TRIPOS>MOLECULE
FMS
    10     9     1
SMALL
NO_CHARGES


@<TRIPOS>ATOM
      1 N1          -0.7353   1.3384   0.0146 N.pl3          1 <1>                0.0000
      2 S2          -0.7128  -0.3175   0.0055 S.o2           1 <1>                0.0000
      3 O3          -1.3014  -0.6827   1.2462 O.2            1 <1>                0.0000
      4 O4          -1.3250  -0.6695  -1.2276 O.2            1 <1>                0.0000
      5 C5           1.0497  -0.7461  -0.0136 C.3            1 <1>                0.0000
      6 F6           1.6696  -0.2217   1.1256 F              1 <1>                0.0000
      7 F7           1.1910  -2.1380  -0.0224 F              1 <1>                0.0000
      8 F8           1.6478  -0.2094  -1.1588 F              1 <1>                0.0000
      9 H9           0.0981   1.8347   0.0093 H              1 <1>                0.0000
     10 H10         -1.5818   1.8119   0.0212 H              1 <1>                0.0000
@<TRIPOS>BOND
    1    1    2 1     
    2    1    9 1     
    3    1   10 1     
    4    2    3 2     
    5    2    4 2     
    6    2    5 1     
    7    5    6 1     
    8    5    7 1     
    9    5    8 1     
@<TRIPOS>SUBSTRUCTURE
      1 ****           1
@<TRIPOS>SET
DONOR_HYDROGENS      STATIC     ATOMS    <user>   **** ""
2 9 10
ATOM$RED        STATIC     ATOMS    COLORGROUP SYSTEM
2 9 10
