#       Name:                FN5
#       Creating user name   gbret
#       Creation time:       Fri Sep  9 08:03:23 2016


#       File generated by GOLD software.
#

@<TRIPOS>MOLECULE
FN5
    68    70     1
SMALL
NO_CHARGES


@<TRIPOS>ATOM
      1 C1           5.5624   2.8979  -2.2124 C.3            1 <1>                0.0000
      2 C2           5.5829   1.3910  -2.2207 C.2            1 <1>                0.0000
      3 O3           6.6413   0.7990  -2.2340 O.2            1 <1>                0.0000
      4 N4           4.4250   0.7013  -2.2133 N.am           1 <1>                0.0000
      5 C5           4.4448  -0.7635  -2.2214 C.3            1 <1>                0.0000
      6 C6           4.5834  -1.2815  -0.7865 C.3            1 <1>                0.0000
      7 O7           5.7636  -0.7360  -0.1933 O.3            1 <1>                0.0000
      8 C8           3.3565  -0.8483   0.0217 C.3            1 <1>                0.0000
      9 F9           3.3093   0.5484   0.0876 F              1 <1>                0.0000
     10 C10          2.0921  -1.3711  -0.6651 C.3            1 <1>                0.0000
     11 O11          0.9402  -0.9235   0.0524 O.3            1 <1>                0.0000
     12 P12         -0.4354  -1.7579   0.1110 P.3            1 <1>                0.0000
     13 O13         -1.0530  -1.8327  -1.3033 O.co2          1 <1>                0.0000
     14 O14         -0.1496  -3.1868   0.6243 O.co2          1 <1>                0.0000
     15 O15         -1.4654  -1.0253   1.1082 O.3            1 <1>                0.0000
     16 C16         -2.7379  -1.5756   1.4547 C.3            1 <1>                0.0000
     17 C17         -3.4582  -0.6287   2.4166 C.3            1 <1>                0.0000
     18 O18         -3.8560   0.5782   1.7304 O.3            1 <1>                0.0000
     19 C19         -4.9119   1.1442   2.5370 C.3            1 <1>                0.0000
     20 C20         -5.7596  -0.0673   2.9841 C.3            1 <1>                0.0000
     21 O21         -6.8619  -0.2623   2.0958 O.3            1 <1>                0.0000
     22 C22         -4.7813  -1.2605   2.9031 C.3            1 <1>                0.0000
     23 O23         -5.2495  -2.2288   1.9623 O.3            1 <1>                0.0000
     24 N24         -4.3505   1.8318   3.7025 N.am           1 <1>                0.0000
     25 C25         -2.9993   1.8921   3.8680 C.2            1 <1>                0.0000
     26 C26         -2.4924   2.5308   4.9491 C.2            1 <1>                0.0000
     27 C27         -3.3801   3.1166   5.8748 C.2            1 <1>                0.0000
     28 N28         -2.8923   3.7719   6.9816 N.pl3          1 <1>                0.0000
     29 N29         -4.6885   3.0325   5.6721 N.2            1 <1>                0.0000
     30 C30         -5.1717   2.4052   4.6011 C.2            1 <1>                0.0000
     31 O31         -6.3788   2.3418   4.4368 O.2            1 <1>                0.0000
     32 O32          2.0406  -0.8771  -2.0051 O.3            1 <1>                0.0000
     33 C33          3.1384  -1.2896  -2.8216 C.3            1 <1>                0.0000
     34 C34          2.9632  -0.7279  -4.2339 C.3            1 <1>                0.0000
     35 O35          4.0611  -1.1405  -5.0502 O.3            1 <1>                0.0000
     36 C36          1.6568  -1.2526  -4.8330 C.3            1 <1>                0.0000
     37 O37          0.5589  -0.8401  -4.0167 O.3            1 <1>                0.0000
     38 C38          1.4815  -0.6910  -6.2453 C.3            1 <1>                0.0000
     39 O39          0.3232  -1.2711  -6.8483 O.3            1 <1>                0.0000
     40 H40          6.5850   3.2752  -2.2201 H              1 <1>                0.0000
     41 H41          5.0353   3.2590  -3.0955 H              1 <1>                0.0000
     42 H42          5.0522   3.2494  -1.3156 H              1 <1>                0.0000
     43 H43          3.5785   1.1748  -2.2027 H              1 <1>                0.0000
     44 H44          5.2869  -1.1131  -2.8188 H              1 <1>                0.0000
     45 H45          4.6497  -2.3694  -0.7964 H              1 <1>                0.0000
     46 H46          5.9142  -1.0226   0.7179 H              1 <1>                0.0000
     47 H47          3.4208  -1.2585   1.0295 H              1 <1>                0.0000
     48 H48          2.1105  -2.4608  -0.6797 H              1 <1>                0.0000
     49 H49         -3.3368  -1.7021   0.5528 H              1 <1>                0.0000
     50 H50         -2.5964  -2.5436   1.9356 H              1 <1>                0.0000
     51 H51         -2.8168  -0.3909   3.2652 H              1 <1>                0.0000
     52 H52         -5.5154   1.8315   1.9442 H              1 <1>                0.0000
     53 H53         -6.1136   0.0704   4.0058 H              1 <1>                0.0000
     54 H54         -7.4279  -1.0106   2.3297 H              1 <1>                0.0000
     55 H55         -4.6496  -1.7138   3.8856 H              1 <1>                0.0000
     56 H56         -6.1073  -2.6139   2.1881 H              1 <1>                0.0000
     57 H57         -2.3398   1.4352   3.1450 H              1 <1>                0.0000
     58 H58         -1.4247   2.5903   5.1001 H              1 <1>                0.0000
     59 H59         -1.9352   3.8320   7.1269 H              1 <1>                0.0000
     60 H60         -3.5055   4.1740   7.6165 H              1 <1>                0.0000
     61 H61          3.1706  -2.3783  -2.8646 H              1 <1>                0.0000
     62 H62          2.9316   0.3608  -4.1906 H              1 <1>                0.0000
     63 H63          4.1505  -2.0997  -5.1337 H              1 <1>                0.0000
     64 H64          1.6884  -2.3413  -4.8763 H              1 <1>                0.0000
     65 H65          0.4695   0.1192  -3.9332 H              1 <1>                0.0000
     66 H66          1.3609   0.3911  -6.1936 H              1 <1>                0.0000
     67 H67          2.3609  -0.9304  -6.8433 H              1 <1>                0.0000
     68 H68          0.1502  -0.9600  -7.7474 H              1 <1>                0.0000
@<TRIPOS>BOND
    1    1    2 1     
    2    1   40 1     
    3    1   41 1     
    4    1   42 1     
    5    2    3 2     
    6    2    4 am    
    7    4    5 1     
    8    4   43 1     
    9    5   33 1     
   10    5    6 1     
   11    5   44 1     
   12    6    7 1     
   13    6    8 1     
   14    6   45 1     
   15    7   46 1     
   16    8    9 1     
   17    8   10 1     
   18    8   47 1     
   19   10   11 1     
   20   10   32 1     
   21   10   48 1     
   22   11   12 1     
   23   12   13 ar    
   24   12   14 ar    
   25   12   15 1     
   26   15   16 1     
   27   16   17 1     
   28   16   49 1     
   29   16   50 1     
   30   17   22 1     
   31   17   18 1     
   32   17   51 1     
   33   18   19 1     
   34   19   20 1     
   35   19   24 1     
   36   19   52 1     
   37   20   21 1     
   38   20   22 1     
   39   20   53 1     
   40   21   54 1     
   41   22   23 1     
   42   22   55 1     
   43   23   56 1     
   44   24   30 am    
   45   24   25 1     
   46   25   26 2     
   47   25   57 1     
   48   26   27 1     
   49   26   58 1     
   50   27   28 1     
   51   27   29 2     
   52   28   59 1     
   53   28   60 1     
   54   29   30 1     
   55   30   31 2     
   56   32   33 1     
   57   33   34 1     
   58   33   61 1     
   59   34   35 1     
   60   34   36 1     
   61   34   62 1     
   62   35   63 1     
   63   36   37 1     
   64   36   38 1     
   65   36   64 1     
   66   37   65 1     
   67   38   39 1     
   68   38   66 1     
   69   38   67 1     
   70   39   68 1     
@<TRIPOS>SUBSTRUCTURE
      1 ****           1
@<TRIPOS>SET
DONOR_HYDROGENS      STATIC     ATOMS    <user>   **** ""
9 43 46 54 56 59 60 63 65 68
ATOM$RED        STATIC     ATOMS    COLORGROUP SYSTEM
9 43 46 54 56 59 60 63 65 68
