#       Name:                FOU
#       Creating user name   gbret
#       Creation time:       Fri Sep  9 08:05:44 2016


#       File generated by GOLD software.
#

@<TRIPOS>MOLECULE
FOU
    17    17     1
SMALL
NO_CHARGES


@<TRIPOS>ATOM
      1 O1           0.5627   2.5064  -0.5541 O.3            1 <1>                0.0000
      2 C2           0.5821   1.0775  -0.5620 C.3            1 <1>                0.0000
      3 N3           1.2831   0.5912   0.6275 N.am           1 <1>                0.0000
      4 C4           0.9546  -0.5751   1.2029 C.2            1 <1>                0.0000
      5 O5           1.5757  -0.9379   2.1832 O.2            1 <1>                0.0000
      6 N6          -0.0323  -1.3568   0.7399 N.am           1 <1>                0.0000
      7 C7          -0.8088  -0.9823  -0.4431 C.3            1 <1>                0.0000
      8 O8          -2.1379  -1.4933  -0.3233 O.3            1 <1>                0.0000
      9 C9          -0.8551   0.5458  -0.5511 C.3            1 <1>                0.0000
     10 F10         -1.5434   1.0737   0.5465 F              1 <1>                0.0000
     11 H11          1.4406   2.9117  -0.5603 H              1 <1>                0.0000
     12 H12          1.0941   0.7251  -1.4573 H              1 <1>                0.0000
     13 H13          2.0000   1.1231   1.0071 H              1 <1>                0.0000
     14 H14         -0.2352  -2.1873   1.1982 H              1 <1>                0.0000
     15 H15         -0.3379  -1.3973  -1.3343 H              1 <1>                0.0000
     16 H16         -2.1837  -2.4561  -0.2456 H              1 <1>                0.0000
     17 H17         -1.3583   0.8324  -1.4745 H              1 <1>                0.0000
@<TRIPOS>BOND
    1    1    2 1     
    2    1   11 1     
    3    2    9 1     
    4    2    3 1     
    5    2   12 1     
    6    3    4 am    
    7    3   13 1     
    8    4    5 2     
    9    4    6 am    
   10    6    7 1     
   11    6   14 1     
   12    7    8 1     
   13    7    9 1     
   14    7   15 1     
   15    8   16 1     
   16    9   10 1     
   17    9   17 1     
@<TRIPOS>SUBSTRUCTURE
      1 ****           1
@<TRIPOS>SET
DONOR_HYDROGENS      STATIC     ATOMS    <user>   **** ""
4 11 13 14 16
ATOM$RED        STATIC     ATOMS    COLORGROUP SYSTEM
4 11 13 14 16
