#       Name:                FTC
#       Creating user name   gbret
#       Creation time:       Fri Sep  9 08:12:40 2016


#       File generated by GOLD software.
#

@<TRIPOS>MOLECULE
FTC
    39    40     1
SMALL
NO_CHARGES


@<TRIPOS>ATOM
      1 C1          -3.9388   5.3505  -3.0037 C.3            1 <1>                0.0000
      2 C2          -3.9134   3.8207  -3.0113 C.3            1 <1>                0.0000
      3 O3          -3.2218   3.3500  -1.8528 O.3            1 <1>                0.0000
      4 C4          -3.1092   2.0047  -1.7062 C.ar           1 <1>                0.0000
      5 C5          -3.6434   1.1362  -2.6538 C.ar           1 <1>                0.0000
      6 C6          -3.5079  -0.2247  -2.4694 C.ar           1 <1>                0.0000
      7 N7          -2.8822  -0.7056  -1.4119 N.ar           1 <1>                0.0000
      8 C8          -2.3620   0.0839  -0.4912 C.ar           1 <1>                0.0000
      9 C9          -1.6580  -0.5205   0.6964 C.3            1 <1>                0.0000
     10 C10         -0.1735  -0.6997   0.3724 C.3            1 <1>                0.0000
     11 N11          0.5108  -1.2872   1.5268 N.am           1 <1>                0.0000
     12 C12          1.8340  -1.5369   1.4705 C.2            1 <1>                0.0000
     13 S13          2.7152  -1.1677   0.0499 S.2            1 <1>                0.0000
     14 N14          2.4636  -2.0774   2.5326 N.am           1 <1>                0.0000
     15 C15          3.8072  -2.4362   2.4379 C.ar           1 <1>                0.0000
     16 C16          4.4216  -3.0905   3.5000 C.ar           1 <1>                0.0000
     17 C17          5.7555  -3.4416   3.3933 C.ar           1 <1>                0.0000
     18 C18          6.4325  -3.1246   2.2221 C.ar           1 <1>                0.0000
     19 Cl19         8.1071  -3.5430   2.0361 Cl             1 <1>                0.0000
     20 C20          5.7586  -2.4733   1.2068 C.ar           1 <1>                0.0000
     21 N21          4.4844  -2.1558   1.3360 N.ar           1 <1>                0.0000
     22 C22         -2.4504   1.4580  -0.6058 C.ar           1 <1>                0.0000
     23 F23         -1.9151   2.2603   0.3403 F              1 <1>                0.0000
     24 H24         -2.9173   5.7309  -3.0107 H              1 <1>                0.0000
     25 H25         -4.4663   5.7096  -3.8874 H              1 <1>                0.0000
     26 H26         -4.4508   5.7009  -2.1075 H              1 <1>                0.0000
     27 H27         -4.9348   3.4403  -3.0043 H              1 <1>                0.0000
     28 H28         -3.4013   3.4704  -3.9075 H              1 <1>                0.0000
     29 H29         -4.1575   1.5223  -3.5216 H              1 <1>                0.0000
     30 H30         -3.9197  -0.9051  -3.2000 H              1 <1>                0.0000
     31 H31         -1.7649   0.1400   1.5569 H              1 <1>                0.0000
     32 H32         -2.0995  -1.4903   0.9256 H              1 <1>                0.0000
     33 H33         -0.0666  -1.3601  -0.4882 H              1 <1>                0.0000
     34 H34          0.2680   0.2702   0.1431 H              1 <1>                0.0000
     35 H35          0.0116  -1.4964   2.3317 H              1 <1>                0.0000
     36 H36          1.9817  -2.2167   3.3628 H              1 <1>                0.0000
     37 H37          3.8651  -3.3212   4.3963 H              1 <1>                0.0000
     38 H38          6.2592  -3.9501   4.2020 H              1 <1>                0.0000
     39 H39          6.2802  -2.2247   0.2944 H              1 <1>                0.0000
@<TRIPOS>BOND
    1    1    2 1     
    2    1   24 1     
    3    1   25 1     
    4    1   26 1     
    5    2    3 1     
    6    2   27 1     
    7    2   28 1     
    8    3    4 1     
    9    4   22 ar    
   10    4    5 ar    
   11    5    6 ar    
   12    5   29 1     
   13    6    7 ar    
   14    6   30 1     
   15    7    8 ar    
   16    8    9 1     
   17    8   22 ar    
   18    9   10 1     
   19    9   31 1     
   20    9   32 1     
   21   10   11 1     
   22   10   33 1     
   23   10   34 1     
   24   11   12 am    
   25   11   35 1     
   26   12   13 2     
   27   12   14 am    
   28   14   15 1     
   29   14   36 1     
   30   15   21 ar    
   31   15   16 ar    
   32   16   17 ar    
   33   16   37 1     
   34   17   18 ar    
   35   17   38 1     
   36   18   19 1     
   37   18   20 ar    
   38   20   21 ar    
   39   20   39 1     
   40   22   23 1     
@<TRIPOS>SUBSTRUCTURE
      1 ****           1
@<TRIPOS>SET
DONOR_HYDROGENS      STATIC     ATOMS    <user>   **** ""
2 35 36
ATOM$RED        STATIC     ATOMS    COLORGROUP SYSTEM
2 35 36
