#       Name:                FUN
#       Creating user name   gbret
#       Creation time:       Fri Sep  9 08:14:40 2016


#       File generated by GOLD software.
#

@<TRIPOS>MOLECULE
FUN
    31    32     1
SMALL
NO_CHARGES


@<TRIPOS>ATOM
      1 N1           1.8665   3.0191   4.1062 N.pl3          1 <1>                0.0000
      2 S2           1.9788   1.3669   4.1076 S.o2           1 <1>                0.0000
      3 O3           3.3657   1.0589   4.0805 O.2            1 <1>                0.0000
      4 O4           1.1001   0.9058   5.1247 O.2            1 <1>                0.0000
      5 C5           1.3127   0.7975   2.5790 C.ar           1 <1>                0.0000
      6 C6           2.1287   0.1611   1.6716 C.ar           1 <1>                0.0000
      7 C7           1.6020  -0.2924   0.4571 C.ar           1 <1>                0.0000
      8 C8           2.4675  -0.9733  -0.5162 C.2            1 <1>                0.0000
      9 O9           3.6727  -1.0464  -0.3172 O.co2          1 <1>                0.0000
     10 O10          1.9830  -1.4671  -1.5255 O.co2          1 <1>                0.0000
     11 C11          0.2393  -0.0929   0.1741 C.ar           1 <1>                0.0000
     12 N12         -0.2962  -0.5377  -1.0259 N.pl3          1 <1>                0.0000
     13 C13         -1.6831  -0.2175  -1.3725 C.3            1 <1>                0.0000
     14 C14         -2.0154  -0.8131  -2.7163 C.2            1 <1>                0.0000
     15 C15         -2.5277  -2.0386  -2.9287 C.2            1 <1>                0.0000
     16 C16         -2.6799  -2.1822  -4.3269 C.2            1 <1>                0.0000
     17 C17         -2.2517  -1.0359  -4.8854 C.2            1 <1>                0.0000
     18 O18         -1.8557  -0.2081  -3.9047 O.3            1 <1>                0.0000
     19 C19         -0.5677   0.5515   1.1025 C.ar           1 <1>                0.0000
     20 C20         -0.0332   0.9883   2.2989 C.ar           1 <1>                0.0000
     21 Cl21        -1.0488   1.7930   3.4543 Cl             1 <1>                0.0000
     22 H22          2.6681   3.5597   4.1835 H              1 <1>                0.0000
     23 H23          0.9995   3.4462   4.0242 H              1 <1>                0.0000
     24 H24          3.1745   0.0121   1.8965 H              1 <1>                0.0000
     25 H25          0.2476  -1.0608  -1.6354 H              1 <1>                0.0000
     26 H26         -2.3512  -0.6306  -0.6167 H              1 <1>                0.0000
     27 H27         -1.8066   0.8647  -1.4141 H              1 <1>                0.0000
     28 H28         -2.7746  -2.7723  -2.1756 H              1 <1>                0.0000
     29 H29         -3.0658  -3.0466  -4.8469 H              1 <1>                0.0000
     30 H30         -2.2331  -0.8168  -5.9428 H              1 <1>                0.0000
     31 H31         -1.6152   0.7075   0.8906 H              1 <1>                0.0000
@<TRIPOS>BOND
    1    1    2 1     
    2    1   22 1     
    3    1   23 1     
    4    2    3 2     
    5    2    4 2     
    6    2    5 1     
    7    5   20 ar    
    8    5    6 ar    
    9    6    7 ar    
   10    6   24 1     
   11    7    8 1     
   12    7   11 ar    
   13    8    9 ar    
   14    8   10 ar    
   15   11   12 1     
   16   11   19 ar    
   17   12   13 1     
   18   12   25 1     
   19   13   14 1     
   20   13   26 1     
   21   13   27 1     
   22   14   18 1     
   23   14   15 2     
   24   15   16 1     
   25   15   28 1     
   26   16   17 2     
   27   16   29 1     
   28   17   18 1     
   29   17   30 1     
   30   19   20 ar    
   31   19   31 1     
   32   20   21 1     
@<TRIPOS>SUBSTRUCTURE
      1 ****           1
@<TRIPOS>SET
DONOR_HYDROGENS      STATIC     ATOMS    <user>   **** ""
3 22 23 25
ATOM$RED        STATIC     ATOMS    COLORGROUP SYSTEM
3 22 23 25
