#	Name:			G6F
#	Creating user name:	drognan
#	Creation time:		Wed Sep  5 12:09:46 2018


#	Modifying user name:	drognan
#	Modification time:	Wed Sep  5 12:09:46 2018

@<TRIPOS>MOLECULE
G6F
  35   38    0    0    0
SMALL
NO_CHARGES


@<TRIPOS>ATOM
   1 C1            -0.6267     1.8550    -0.3055 C.3     
   2 C2            -0.5185     0.3656    -0.1033 C.2     
   3 C3            -0.2424    -0.5440    -1.0499 C.2     
   4 C4            -0.2325    -1.8194    -0.4434 C.2     
   5 N5            -0.4965    -1.6656     0.8217 N.2     
   6 N6            -0.6766    -0.2952     1.0669 N.pl3   
   7 H7            -0.8840     0.1074     1.9247 H       
   8 O8             0.0232    -2.9524    -1.1510 O.3     
   9 C9             0.5332    -2.8083    -2.3902 C.2     
  10 C10            0.5672    -1.6450    -3.0731 C.2     
  11 C11            0.0249    -0.3510    -2.5208 C.3     
  12 C12            1.0372     0.7485    -2.7141 C.ar    
  13 C13            2.3310     0.5807    -2.2629 C.ar    
  14 C14            3.2669     1.5972    -2.4416 C.ar    
  15 C15            2.8917     2.7797    -3.0757 C.ar    
  16 C16            1.5938     2.9382    -3.5239 C.ar    
  17 C17            0.6694     1.9210    -3.3480 C.ar    
  18 F18            1.2275     4.0839    -4.1390 F       
  19 C19            4.6586     1.4211    -1.9577 C.ar    
  20 C20            5.0355     0.2364    -1.3282 C.ar    
  21 C21            6.3311     0.0780    -0.8801 C.ar    
  22 C22            7.2549     1.0929    -1.0546 C.ar    
  23 C23            6.8863     2.2708    -1.6787 C.ar    
  24 C24            5.5947     2.4374    -2.1363 C.ar    
  25 C25            7.8982     3.3718    -1.8651 C.3     
  26 C26            8.6142     3.1851    -3.2043 C.3     
  27 C27            9.6261     4.2862    -3.3907 C.2     
  28 O28            9.7609     5.1333    -2.5397 O.2     
  29 O29           10.3777     4.3258    -4.5021 O.3     
  30 C30           -1.2765     0.0119    -3.2387 C.3     
  31 C31           -1.0260     0.0773    -4.7467 C.3     
  32 C32           -2.3357    -1.0521    -2.9434 C.3     
  33 C33            1.1452    -1.6391    -4.3833 C.1     
  34 N34            1.6036    -1.6345    -5.4227 N.1     
  35 N35            1.0545    -3.9222    -2.9998 N.pl3   
@<TRIPOS>BOND
   1    1    2 1
   2    2    6 1
   3    2    3 2
   4    3   11 1
   5    3    4 1
   6    4    5 2
   7    4    8 1
   8    5    6 1
   9    6    7 1
  10    8    9 1
  11    9   10 2
  12    9   35 1
  13   10   11 1
  14   10   33 1
  15   11   12 1
  16   11   30 1
  17   12   17 ar
  18   12   13 ar
  19   13   14 ar
  20   14   15 ar
  21   14   19 1
  22   15   16 ar
  23   16   17 ar
  24   16   18 1
  25   19   24 ar
  26   19   20 ar
  27   20   21 ar
  28   21   22 ar
  29   22   23 ar
  30   23   24 ar
  31   23   25 1
  32   25   26 1
  33   26   27 1
  34   27   28 2
  35   27   29 1
  36   30   31 1
  37   30   32 1
  38   33   34 3





