#       Name:                G9D
#       Creating user name   gbret
#       Creation time:       Fri Sep  9 08:28:47 2016


#       File generated by GOLD software.
#

@<TRIPOS>MOLECULE
G9D
    38    41     1
SMALL
NO_CHARGES


@<TRIPOS>ATOM
      1 O1           1.0696  -4.0857  -0.2261 O.2            1 <1>                0.0000
      2 C2           1.0531  -2.8700  -0.2194 C.2            1 <1>                0.0000
      3 N3          -0.1607  -2.2754  -0.1992 N.am           1 <1>                0.0000
      4 N4          -0.5426  -0.9376  -0.1868 N.2            1 <1>                0.0000
      5 C5           0.1362   0.1716  -0.1907 C.2            1 <1>                0.0000
      6 C6          -0.6604   1.4507  -0.1726 C.3            1 <1>                0.0000
      7 N7          -2.0948   1.1341  -0.1537 N.4            1 <1>                0.0000
      8 H8          -2.3169   0.5329  -0.9330 H              1 <1>                0.0000
      9 C9          -2.4292   0.4506   1.1033 C.3            1 <1>                0.0000
     10 C10         -3.9240   0.1215   1.1204 C.3            1 <1>                0.0000
     11 O11         -4.6744   1.3290   0.9633 O.3            1 <1>                0.0000
     12 C12         -4.3663   2.0441  -0.2365 C.3            1 <1>                0.0000
     13 C13         -2.8722   2.3767  -0.2564 C.3            1 <1>                0.0000
     14 C14          1.6046   0.3078  -0.2105 C.2            1 <1>                0.0000
     15 C15          2.3341   1.4436  -0.2143 C.2            1 <1>                0.0000
     16 N16          3.6719   1.1314  -0.2337 N.pl3          1 <1>                0.0000
     17 H17          4.3915   1.7818  -0.2396 H              1 <1>                0.0000
     18 C18          3.8479  -0.2351  -0.2432 C.ar           1 <1>                0.0000
     19 C19          4.9375  -1.1031  -0.2620 C.ar           1 <1>                0.0000
     20 C20          4.7368  -2.4694  -0.2670 C.ar           1 <1>                0.0000
     21 C21          3.4629  -3.0256  -0.2539 C.ar           1 <1>                0.0000
     22 C22          2.3627  -2.1837  -0.2282 C.ar           1 <1>                0.0000
     23 C23          2.5725  -0.7973  -0.2295 C.ar           1 <1>                0.0000
     24 H24         -0.9046  -2.8979  -0.1922 H              1 <1>                0.0000
     25 H25         -0.4036   2.0261   0.7169 H              1 <1>                0.0000
     26 H26         -0.4291   2.0354  -1.0629 H              1 <1>                0.0000
     27 H27         -1.8530  -0.4715   1.1802 H              1 <1>                0.0000
     28 H28         -2.1902   1.1003   1.9452 H              1 <1>                0.0000
     29 H29         -4.1560  -0.5603   0.3023 H              1 <1>                0.0000
     30 H30         -4.1828  -0.3469   2.0700 H              1 <1>                0.0000
     31 H31         -4.6134   1.4281  -1.1011 H              1 <1>                0.0000
     32 H32         -4.9451   2.9671  -0.2690 H              1 <1>                0.0000
     33 H33         -2.6330   3.0257   0.5860 H              1 <1>                0.0000
     34 H34         -2.6251   2.8845  -1.1887 H              1 <1>                0.0000
     35 H35          1.9283   2.4444  -0.2038 H              1 <1>                0.0000
     36 H36          5.9419  -0.7064  -0.2731 H              1 <1>                0.0000
     37 H37          5.5948  -3.1251  -0.2818 H              1 <1>                0.0000
     38 H38          3.3328  -4.0977  -0.2590 H              1 <1>                0.0000
@<TRIPOS>BOND
    1    1    2 2     
    2    2   22 1     
    3    2    3 am    
    4    3    4 1     
    5    3   24 1     
    6    4    5 2     
    7    5    6 1     
    8    5   14 1     
    9    6    7 1     
   10    6   25 1     
   11    6   26 1     
   12    7    8 1     
   13    7   13 1     
   14    7    9 1     
   15    9   10 1     
   16    9   27 1     
   17    9   28 1     
   18   10   11 1     
   19   10   29 1     
   20   10   30 1     
   21   11   12 1     
   22   12   13 1     
   23   12   31 1     
   24   12   32 1     
   25   13   33 1     
   26   13   34 1     
   27   14   23 1     
   28   14   15 2     
   29   15   16 1     
   30   15   35 1     
   31   16   17 1     
   32   16   18 1     
   33   18   23 ar    
   34   18   19 ar    
   35   19   20 ar    
   36   19   36 1     
   37   20   21 ar    
   38   20   37 1     
   39   21   22 ar    
   40   21   38 1     
   41   22   23 ar    
@<TRIPOS>SUBSTRUCTURE
      1 ****           1
@<TRIPOS>SET
DONOR_HYDROGENS      STATIC     ATOMS    <user>   **** ""
3 24 8 17
ATOM$RED        STATIC     ATOMS    COLORGROUP SYSTEM
3 24 8 17
