#       Name:                GB1
#       Creating user name   gbret
#       Creation time:       Fri Sep  9 08:31:14 2016


#       File generated by GOLD software.
#

@<TRIPOS>MOLECULE
GB1
    39    40     1
SMALL
NO_CHARGES


@<TRIPOS>ATOM
      1 O1           2.1412   1.7954  -1.5307 O.3            1 <1>                0.0000
      2 C2           2.1606   0.3665  -1.5386 C.3            1 <1>                0.0000
      3 C3           0.7252  -0.1630  -1.5277 C.3            1 <1>                0.0000
      4 N4           0.0752   0.2099  -0.2642 N.4            1 <1>                0.0000
      5 H5           0.1365   1.2089  -0.1365 H              1 <1>                0.0000
      6 H6          -0.8947  -0.0671  -0.2904 H              1 <1>                0.0000
      7 C7           0.7482  -0.4686   0.8515 C.3            1 <1>                0.0000
      8 C8           0.0713  -0.0802   2.1675 C.3            1 <1>                0.0000
      9 N9          -1.3608  -0.4752   2.1498 N.3            1 <1>                0.0000
     10 C10         -1.7358  -0.5524   3.5852 C.3            1 <1>                0.0000
     11 C11         -0.5089  -1.1872   4.2743 C.3            1 <1>                0.0000
     12 O12         -0.6855  -2.5997   4.3996 O.3            1 <1>                0.0000
     13 C13          0.6800  -0.8765   3.3416 C.3            1 <1>                0.0000
     14 O14          1.2683  -2.0891   2.8667 O.3            1 <1>                0.0000
     15 C15         -0.0392   0.4339  -2.6811 C.ar           1 <1>                0.0000
     16 C16         -0.5431   1.7176  -2.5859 C.ar           1 <1>                0.0000
     17 C17         -1.2443   2.2651  -3.6439 C.ar           1 <1>                0.0000
     18 C18         -1.4412   1.5292  -4.7974 C.ar           1 <1>                0.0000
     19 C19         -0.9365   0.2458  -4.8930 C.ar           1 <1>                0.0000
     20 C20         -0.2316  -0.3002  -3.8366 C.ar           1 <1>                0.0000
     21 H21          3.0191   2.2007  -1.5369 H              1 <1>                0.0000
     22 H22          2.6708   0.0150  -2.4354 H              1 <1>                0.0000
     23 H23          2.6878   0.0055  -0.6555 H              1 <1>                0.0000
     24 H24          0.7378  -1.2488  -1.6232 H              1 <1>                0.0000
     25 H25          0.6821  -1.5478   0.7136 H              1 <1>                0.0000
     26 H26          1.7960  -0.1694   0.8798 H              1 <1>                0.0000
     27 H27          0.1698   0.9911   2.3431 H              1 <1>                0.0000
     28 H28         -1.9195   0.2121   1.6665 H              1 <1>                0.0000
     29 H29         -1.9219   0.4450   3.9836 H              1 <1>                0.0000
     30 H30         -2.6142  -1.1846   3.7151 H              1 <1>                0.0000
     31 H31         -0.3505  -0.7377   5.2545 H              1 <1>                0.0000
     32 H32         -1.4465  -2.8545   4.9390 H              1 <1>                0.0000
     33 H33          1.4229  -0.2733   3.8634 H              1 <1>                0.0000
     34 H34          1.6276  -2.6522   3.5660 H              1 <1>                0.0000
     35 H35         -0.3893   2.2926  -1.6847 H              1 <1>                0.0000
     36 H36         -1.6386   3.2678  -3.5692 H              1 <1>                0.0000
     37 H37         -1.9896   1.9567  -5.6237 H              1 <1>                0.0000
     38 H38         -1.0906  -0.3293  -5.7940 H              1 <1>                0.0000
     39 H39          0.1627  -1.3028  -3.9113 H              1 <1>                0.0000
@<TRIPOS>BOND
    1    1    2 1     
    2    1   21 1     
    3    2    3 1     
    4    2   22 1     
    5    2   23 1     
    6    3    4 1     
    7    3   15 1     
    8    3   24 1     
    9    4    5 1     
   10    4    6 1     
   11    4    7 1     
   12    7    8 1     
   13    7   25 1     
   14    7   26 1     
   15    8   13 1     
   16    8    9 1     
   17    8   27 1     
   18    9   10 1     
   19    9   28 1     
   20   10   11 1     
   21   10   29 1     
   22   10   30 1     
   23   11   12 1     
   24   11   13 1     
   25   11   31 1     
   26   12   32 1     
   27   13   14 1     
   28   13   33 1     
   29   14   34 1     
   30   15   20 ar    
   31   15   16 ar    
   32   16   17 ar    
   33   16   35 1     
   34   17   18 ar    
   35   17   36 1     
   36   18   19 ar    
   37   18   37 1     
   38   19   20 ar    
   39   19   38 1     
   40   20   39 1     
@<TRIPOS>SUBSTRUCTURE
      1 ****           1
@<TRIPOS>SET
DONOR_HYDROGENS      STATIC     ATOMS    <user>   **** ""
6 21 5 6 28 32 34
ATOM$RED        STATIC     ATOMS    COLORGROUP SYSTEM
6 21 5 6 28 32 34
