#       Name:                GCT
#       Creating user name   gbret
#       Creation time:       Fri Sep  9 08:33:59 2016


#       File generated by GOLD software.
#

@<TRIPOS>MOLECULE
GCT
    20    20     1
SMALL
NO_CHARGES


@<TRIPOS>ATOM
      1 O1           0.5252   2.6501  -0.6669 O.3            1 <1>                0.0000
      2 C2           0.5445   1.2212  -0.6748 C.3            1 <1>                0.0000
      3 C3           1.2780   0.7127   0.5691 C.3            1 <1>                0.0000
      4 O4           1.2456  -0.7158   0.5887 O.3            1 <1>                0.0000
      5 C5          -0.0707  -1.2690   0.6470 C.3            1 <1>                0.0000
      6 C6          -0.8583  -0.8400  -0.5938 C.3            1 <1>                0.0000
      7 C7          -0.8921   0.6898  -0.6639 C.3            1 <1>                0.0000
      8 O8          -1.5838   1.2053   0.4752 O.3            1 <1>                0.0000
      9 C9           0.0175  -2.7727   0.6912 C.2            1 <1>                0.0000
     10 O10          1.1069  -3.3202   0.6744 O.co2          1 <1>                0.0000
     11 O11         -1.0002  -3.4419   0.7437 O.co2          1 <1>                0.0000
     12 H12          1.4030   3.0554  -0.6731 H              1 <1>                0.0000
     13 H13          1.0566   0.8688  -1.5702 H              1 <1>                0.0000
     14 H14          2.3133   1.0526   0.5450 H              1 <1>                0.0000
     15 H15          0.7889   1.0996   1.4631 H              1 <1>                0.0000
     16 H16         -0.5774  -0.9079   1.5419 H              1 <1>                0.0000
     17 H17         -0.3742  -1.2350  -1.4870 H              1 <1>                0.0000
     18 H18         -1.8762  -1.2243  -0.5299 H              1 <1>                0.0000
     19 H19         -1.4032   1.0018  -1.5747 H              1 <1>                0.0000
     20 H20         -1.6431   2.1703   0.4958 H              1 <1>                0.0000
@<TRIPOS>BOND
    1    1    2 1     
    2    1   12 1     
    3    2    7 1     
    4    2    3 1     
    5    2   13 1     
    6    3    4 1     
    7    3   14 1     
    8    3   15 1     
    9    4    5 1     
   10    5    6 1     
   11    5    9 1     
   12    5   16 1     
   13    6    7 1     
   14    6   17 1     
   15    6   18 1     
   16    7    8 1     
   17    7   19 1     
   18    8   20 1     
   19    9   10 ar    
   20    9   11 ar    
@<TRIPOS>SUBSTRUCTURE
      1 ****           1
@<TRIPOS>SET
DONOR_HYDROGENS      STATIC     ATOMS    <user>   **** ""
2 12 20
ATOM$RED        STATIC     ATOMS    COLORGROUP SYSTEM
2 12 20
