#       Name:                GIR
#       Creating user name   gbret
#       Creation time:       Fri Sep  9 08:41:59 2016


#       File generated by GOLD software.
#

@<TRIPOS>MOLECULE
GIR
    25    25     1
SMALL
NO_CHARGES


@<TRIPOS>ATOM
      1 N1           1.0293   4.1700  -0.7612 N.pl3          1 <1>                0.0000
      2 C2           1.0481   2.7852  -0.7688 C.cat          1 <1>                0.0000
      3 N3          -0.0444   1.9748  -0.7681 N.pl3          1 <1>                0.0000
      4 H4          -0.9723   2.2574  -0.7626 H              1 <1>                0.0000
      5 C5           0.4164   0.6776  -0.7773 C.2            1 <1>                0.0000
      6 C6           1.7587   0.7388  -0.7832 C.2            1 <1>                0.0000
      7 N7           2.1226   2.0325  -0.7835 N.pl3          1 <1>                0.0000
      8 H8           3.0361   2.3586  -0.7873 H              1 <1>                0.0000
      9 C9          -0.4245  -0.5730  -0.7802 C.3            1 <1>                0.0000
     10 O10          0.2220  -1.5799  -1.5615 O.3            1 <1>                0.0000
     11 C11         -0.5981  -1.0742   0.6549 C.3            1 <1>                0.0000
     12 Cl12        -1.5430   0.1337   1.6031 Cl             1 <1>                0.0000
     13 C13         -1.3449  -2.4095   0.6420 C.3            1 <1>                0.0000
     14 N14         -1.5116  -2.8907   2.0199 N.4            1 <1>                0.0000
     15 H15         -2.0041  -3.7712   2.0113 H              1 <1>                0.0000
     16 H16         -0.6049  -3.0165   2.4442 H              1 <1>                0.0000
     17 H17         -2.0404  -2.2147   2.5505 H              1 <1>                0.0000
     18 H18          1.8626   4.6664  -0.7665 H              1 <1>                0.0000
     19 H19          0.1828   4.6436  -0.7546 H              1 <1>                0.0000
     20 H20          2.4303  -0.1070  -0.7909 H              1 <1>                0.0000
     21 H21         -1.4022  -0.3525  -1.2088 H              1 <1>                0.0000
     22 H22          1.0990  -1.8265  -1.2373 H              1 <1>                0.0000
     23 H23          0.3814  -1.2101   1.1133 H              1 <1>                0.0000
     24 H24         -2.3245  -2.2735   0.1836 H              1 <1>                0.0000
     25 H25         -0.7738  -3.1397   0.0687 H              1 <1>                0.0000
@<TRIPOS>BOND
    1    1    2 ar    
    2    1   18 1     
    3    1   19 1     
    4    2    7 ar    
    5    2    3 ar    
    6    3    4 1     
    7    3    5 1     
    8    5    6 2     
    9    5    9 1     
   10    6    7 1     
   11    6   20 1     
   12    7    8 1     
   13    9   10 1     
   14    9   11 1     
   15    9   21 1     
   16   10   22 1     
   17   11   12 1     
   18   11   13 1     
   19   11   23 1     
   20   13   14 1     
   21   13   24 1     
   22   13   25 1     
   23   14   15 1     
   24   14   16 1     
   25   14   17 1     
@<TRIPOS>SUBSTRUCTURE
      1 ****           1
@<TRIPOS>SET
DONOR_HYDROGENS      STATIC     ATOMS    <user>   **** ""
8 18 19 4 8 22 15 16 17
ATOM$RED        STATIC     ATOMS    COLORGROUP SYSTEM
8 18 19 4 8 22 15 16 17
