#       Name:                GNF
#       Creating user name   gbret
#       Creation time:       Fri Sep  9 08:47:45 2016


#       File generated by GOLD software.
#

@<TRIPOS>MOLECULE
GNF
    64    67     1
SMALL
NO_CHARGES


@<TRIPOS>ATOM
      1 C1           6.0579   8.8842  -0.0914 C.3            1 <1>                0.0000
      2 O2           6.0773   7.4553  -0.0993 O.3            1 <1>                0.0000
      3 C3           4.8740   6.8215  -0.0912 C.ar           1 <1>                0.0000
      4 C4           3.7009   7.5614  -0.0818 C.ar           1 <1>                0.0000
      5 C5           2.4786   6.9185  -0.0741 C.ar           1 <1>                0.0000
      6 C6           2.4243   5.5310  -0.0757 C.ar           1 <1>                0.0000
      7 N7           1.1862   4.8788  -0.0683 N.pl3          1 <1>                0.0000
      8 C8           1.1294   3.4149  -0.0700 C.3            1 <1>                0.0000
      9 C9          -0.3317   2.9612  -0.0608 C.3            1 <1>                0.0000
     10 N10         -0.3885   1.4973  -0.0625 N.am           1 <1>                0.0000
     11 C11         -1.5809   0.8691  -0.0554 C.2            1 <1>                0.0000
     12 O12         -2.6069   1.5158  -0.0476 O.2            1 <1>                0.0000
     13 C13         -1.6393  -0.6368  -0.0571 C.3            1 <1>                0.0000
     14 C14         -0.9300  -1.1761   1.1867 C.3            1 <1>                0.0000
     15 C15         -0.8798  -2.7039   1.1229 C.3            1 <1>                0.0000
     16 C16         -0.0098  -3.1367  -0.0589 C.3            1 <1>                0.0000
     17 C17          0.0404  -4.6646  -0.1227 C.3            1 <1>                0.0000
     18 C18          0.6369  -5.2099   1.1764 C.3            1 <1>                0.0000
     19 C19         -0.2332  -4.7771   2.3582 C.3            1 <1>                0.0000
     20 C20         -0.2833  -3.2493   2.4220 C.3            1 <1>                0.0000
     21 N21         -3.0384  -1.0712  -0.0483 N.pl3          1 <1>                0.0000
     22 C22         -3.3787  -2.3064  -0.5516 C.2            1 <1>                0.0000
     23 N23         -2.5338  -3.1699  -1.0544 N.2            1 <1>                0.0000
     24 C24         -3.2232  -4.2749  -1.4509 C.ar           1 <1>                0.0000
     25 C25         -2.8501  -5.4829  -2.0416 C.ar           1 <1>                0.0000
     26 C26         -3.8102  -6.4281  -2.3292 C.ar           1 <1>                0.0000
     27 C27         -5.1433  -6.1855  -2.0356 C.ar           1 <1>                0.0000
     28 C28         -5.5257  -4.9949  -1.4514 C.ar           1 <1>                0.0000
     29 C29         -4.5731  -4.0337  -1.1552 C.ar           1 <1>                0.0000
     30 O30         -4.6271  -2.8042  -0.5930 O.3            1 <1>                0.0000
     31 C31          3.5993   4.7910  -0.0851 C.ar           1 <1>                0.0000
     32 C32          4.8207   5.4355  -0.0981 C.ar           1 <1>                0.0000
     33 H33          7.0805   9.2615  -0.0992 H              1 <1>                0.0000
     34 H34          5.5307   9.2453  -0.9745 H              1 <1>                0.0000
     35 H35          5.5477   9.2357   0.8054 H              1 <1>                0.0000
     36 H36          3.7433   8.6406  -0.0802 H              1 <1>                0.0000
     37 H37          1.5652   7.4948  -0.0664 H              1 <1>                0.0000
     38 H38          0.3656   5.3960  -0.0620 H              1 <1>                0.0000
     39 H39          1.6228   3.0332  -0.9638 H              1 <1>                0.0000
     40 H40          1.6348   3.0306   0.8161 H              1 <1>                0.0000
     41 H41         -0.8251   3.3429   0.8331 H              1 <1>                0.0000
     42 H42         -0.8370   3.3454  -0.9469 H              1 <1>                0.0000
     43 H43          0.4321   0.9801  -0.0687 H              1 <1>                0.0000
     44 H44         -1.1459  -1.0185  -0.9509 H              1 <1>                0.0000
     45 H45          0.0849  -0.7806   1.2263 H              1 <1>                0.0000
     46 H46         -1.4754  -0.8674   2.0785 H              1 <1>                0.0000
     47 H47         -1.8888  -3.0955   0.9939 H              1 <1>                0.0000
     48 H48         -0.4347  -2.7482  -0.9844 H              1 <1>                0.0000
     49 H49          0.9992  -2.7451   0.0701 H              1 <1>                0.0000
     50 H50         -0.9686  -5.0562  -0.2517 H              1 <1>                0.0000
     51 H51          0.6603  -4.9729  -0.9646 H              1 <1>                0.0000
     52 H52          0.6726  -6.2984   1.1310 H              1 <1>                0.0000
     53 H53          1.6459  -4.8183   1.3055 H              1 <1>                0.0000
     54 H54         -1.2422  -5.1687   2.2292 H              1 <1>                0.0000
     55 H55          0.1918  -5.1656   3.2838 H              1 <1>                0.0000
     56 H56          0.7257  -2.8577   2.5510 H              1 <1>                0.0000
     57 H57         -0.9032  -2.9409   3.2639 H              1 <1>                0.0000
     58 H58         -3.7250  -0.4884   0.3121 H              1 <1>                0.0000
     59 H59         -1.8129  -5.6759  -2.2727 H              1 <1>                0.0000
     60 H60         -3.5227  -7.3634  -2.7863 H              1 <1>                0.0000
     61 H61         -5.8878  -6.9333  -2.2660 H              1 <1>                0.0000
     62 H62         -6.5661  -4.8127  -1.2259 H              1 <1>                0.0000
     63 H63          3.5580   3.7118  -0.0863 H              1 <1>                0.0000
     64 H64          5.7346   4.8601  -0.1058 H              1 <1>                0.0000
@<TRIPOS>BOND
    1    1    2 1     
    2    1   33 1     
    3    1   34 1     
    4    1   35 1     
    5    2    3 1     
    6    3   32 ar    
    7    3    4 ar    
    8    4    5 ar    
    9    4   36 1     
   10    5    6 ar    
   11    5   37 1     
   12    6    7 1     
   13    6   31 ar    
   14    7    8 1     
   15    7   38 1     
   16    8    9 1     
   17    8   39 1     
   18    8   40 1     
   19    9   10 1     
   20    9   41 1     
   21    9   42 1     
   22   10   11 am    
   23   10   43 1     
   24   11   12 2     
   25   11   13 1     
   26   13   14 1     
   27   13   21 1     
   28   13   44 1     
   29   14   15 1     
   30   14   45 1     
   31   14   46 1     
   32   15   20 1     
   33   15   16 1     
   34   15   47 1     
   35   16   17 1     
   36   16   48 1     
   37   16   49 1     
   38   17   18 1     
   39   17   50 1     
   40   17   51 1     
   41   18   19 1     
   42   18   52 1     
   43   18   53 1     
   44   19   20 1     
   45   19   54 1     
   46   19   55 1     
   47   20   56 1     
   48   20   57 1     
   49   21   22 1     
   50   21   58 1     
   51   22   30 1     
   52   22   23 2     
   53   23   24 1     
   54   24   29 ar    
   55   24   25 ar    
   56   25   26 ar    
   57   25   59 1     
   58   26   27 ar    
   59   26   60 1     
   60   27   28 ar    
   61   27   61 1     
   62   28   29 ar    
   63   28   62 1     
   64   29   30 1     
   65   31   32 ar    
   66   31   63 1     
   67   32   64 1     
@<TRIPOS>SUBSTRUCTURE
      1 ****           1
@<TRIPOS>SET
DONOR_HYDROGENS      STATIC     ATOMS    <user>   **** ""
3 38 43 58
ATOM$RED        STATIC     ATOMS    COLORGROUP SYSTEM
3 38 43 58
