#       Name:                GRM
#       Creating user name   gbret
#       Creation time:       Fri Sep  9 08:53:16 2016


#       File generated by GOLD software.
#

@<TRIPOS>MOLECULE
GRM
    60    64     1
SMALL
NO_CHARGES


@<TRIPOS>ATOM
      1 C1          -2.2427   2.4653  -1.9609 C.3            1 <1>                0.0000
      2 C2          -2.2219   0.9354  -1.9693 C.3            1 <1>                0.0000
      3 N3          -1.5114   0.4488  -0.7792 N.4            1 <1>                0.0000
      4 H4          -1.9844   0.7747   0.0504 H              1 <1>                0.0000
      5 C5          -1.4954  -1.0189  -0.7868 C.3            1 <1>                0.0000
      6 C6          -0.8278  -1.5321   0.4909 C.3            1 <1>                0.0000
      7 C7           0.6084  -1.0047   0.5571 C.3            1 <1>                0.0000
      8 C8           0.5836   0.5250   0.4894 C.3            1 <1>                0.0000
      9 C9          -0.1357   0.9605  -0.7891 C.3            1 <1>                0.0000
     10 C10          1.2465  -1.4416   1.8505 C.2            1 <1>                0.0000
     11 O11          0.6159  -2.1093   2.6427 O.2            1 <1>                0.0000
     12 N12          2.5180  -1.0904   2.1270 N.am           1 <1>                0.0000
     13 C13          3.1384  -1.5152   3.3844 C.3            1 <1>                0.0000
     14 C14          4.5515  -0.9954   3.4480 C.ar           1 <1>                0.0000
     15 C15          5.5893  -1.7551   2.9409 C.ar           1 <1>                0.0000
     16 C16          6.8873  -1.2827   2.9969 C.ar           1 <1>                0.0000
     17 C17          7.1511  -0.0456   3.5621 C.ar           1 <1>                0.0000
     18 O18          8.3191   0.6384   3.7386 O.3            1 <1>                0.0000
     19 C19          7.9317   2.0021   3.9905 C.3            1 <1>                0.0000
     20 O20          6.6185   1.8834   4.5689 O.3            1 <1>                0.0000
     21 C21          6.1055   0.7198   4.0725 C.ar           1 <1>                0.0000
     22 C22          4.8065   0.2423   4.0082 C.ar           1 <1>                0.0000
     23 C23         -3.6357   0.4138  -1.9586 C.ar           1 <1>                0.0000
     24 C24         -4.2329   0.0798  -0.7818 C.ar           1 <1>                0.0000
     25 C25         -5.5393  -0.4036  -0.7521 C.ar           1 <1>                0.0000
     26 C26         -6.2564  -0.5563  -1.8990 C.ar           1 <1>                0.0000
     27 C27         -5.6735  -0.2220  -3.1330 C.ar           1 <1>                0.0000
     28 C28         -6.3826  -0.3655  -4.3379 C.ar           1 <1>                0.0000
     29 C29         -5.7857  -0.0312  -5.5144 C.ar           1 <1>                0.0000
     30 C30         -4.4787   0.4522  -5.5441 C.ar           1 <1>                0.0000
     31 C31         -3.7615   0.6040  -4.3976 C.ar           1 <1>                0.0000
     32 C32         -4.3464   0.2752  -3.1627 C.ar           1 <1>                0.0000
     33 H33         -1.2201   2.8426  -1.9686 H              1 <1>                0.0000
     34 H34         -2.7699   2.8263  -2.8439 H              1 <1>                0.0000
     35 H35         -2.7529   2.8168  -1.0641 H              1 <1>                0.0000
     36 H36         -1.7117   0.5839  -2.8661 H              1 <1>                0.0000
     37 H37         -2.5181  -1.3927  -0.8371 H              1 <1>                0.0000
     38 H38         -0.9376  -1.3713  -1.6544 H              1 <1>                0.0000
     39 H39         -1.3851  -1.1805   1.3592 H              1 <1>                0.0000
     40 H40         -0.8153  -2.6220   0.4825 H              1 <1>                0.0000
     41 H41          1.1801  -1.3976  -0.2837 H              1 <1>                0.0000
     42 H42          0.0557   0.9193   1.3577 H              1 <1>                0.0000
     43 H43          1.6050   0.9055   0.4799 H              1 <1>                0.0000
     44 H44          0.3939   0.5655  -1.6560 H              1 <1>                0.0000
     45 H45         -0.1555   2.0491  -0.8415 H              1 <1>                0.0000
     46 H46          3.0224  -0.5564   1.4935 H              1 <1>                0.0000
     47 H47          2.5671  -1.1183   4.2236 H              1 <1>                0.0000
     48 H48          3.1491  -2.6039   3.4347 H              1 <1>                0.0000
     49 H49          5.3856  -2.7199   2.5004 H              1 <1>                0.0000
     50 H50          7.6961  -1.8784   2.6003 H              1 <1>                0.0000
     51 H51          8.6191   2.4718   4.6941 H              1 <1>                0.0000
     52 H52          7.8904   2.5668   3.0591 H              1 <1>                0.0000
     53 H53          3.9933   0.8359   4.3989 H              1 <1>                0.0000
     54 H54         -3.6857   0.1908   0.1427 H              1 <1>                0.0000
     55 H55         -5.9897  -0.6614   0.1951 H              1 <1>                0.0000
     56 H56         -7.2679  -0.9329  -1.8608 H              1 <1>                0.0000
     57 H57         -7.3957  -0.7395  -4.3304 H              1 <1>                0.0000
     58 H58         -6.3328  -0.1425  -6.4389 H              1 <1>                0.0000
     59 H59         -4.0284   0.7099  -6.4913 H              1 <1>                0.0000
     60 H60         -2.7495   0.9795  -4.4360 H              1 <1>                0.0000
@<TRIPOS>BOND
    1    1    2 1     
    2    1   33 1     
    3    1   34 1     
    4    1   35 1     
    5    2    3 1     
    6    2   23 1     
    7    2   36 1     
    8    3    4 1     
    9    3    9 1     
   10    3    5 1     
   11    5    6 1     
   12    5   37 1     
   13    5   38 1     
   14    6    7 1     
   15    6   39 1     
   16    6   40 1     
   17    7    8 1     
   18    7   10 1     
   19    7   41 1     
   20    8    9 1     
   21    8   42 1     
   22    8   43 1     
   23    9   44 1     
   24    9   45 1     
   25   10   11 2     
   26   10   12 am    
   27   12   13 1     
   28   12   46 1     
   29   13   14 1     
   30   13   47 1     
   31   13   48 1     
   32   14   22 ar    
   33   14   15 ar    
   34   15   16 ar    
   35   15   49 1     
   36   16   17 ar    
   37   16   50 1     
   38   17   21 ar    
   39   17   18 1     
   40   18   19 1     
   41   19   20 1     
   42   19   51 1     
   43   19   52 1     
   44   20   21 1     
   45   21   22 ar    
   46   22   53 1     
   47   23   32 ar    
   48   23   24 ar    
   49   24   25 ar    
   50   24   54 1     
   51   25   26 ar    
   52   25   55 1     
   53   26   27 ar    
   54   26   56 1     
   55   27   32 ar    
   56   27   28 ar    
   57   28   29 ar    
   58   28   57 1     
   59   29   30 ar    
   60   29   58 1     
   61   30   31 ar    
   62   30   59 1     
   63   31   32 ar    
   64   31   60 1     
@<TRIPOS>SUBSTRUCTURE
      1 ****           1
@<TRIPOS>SET
DONOR_HYDROGENS      STATIC     ATOMS    <user>   **** ""
2 4 46
ATOM$RED        STATIC     ATOMS    COLORGROUP SYSTEM
2 4 46
