#       Name:                GSS
#       Creating user name   gbret
#       Creation time:       Fri Sep  9 08:55:38 2016


#       File generated by GOLD software.
#

@<TRIPOS>MOLECULE
GSS
    52    55     1
SMALL
NO_CHARGES


@<TRIPOS>ATOM
      1 O1           0.2923   4.4369  -1.5410 O.3            1 <1>                0.0000
      2 C2           0.3117   3.0080  -1.5489 C.3            1 <1>                0.0000
      3 C3          -1.1237   2.4785  -1.5380 C.3            1 <1>                0.0000
      4 N4          -1.7719   2.8503  -0.2780 N.pl3          1 <1>                0.0000
      5 C5          -1.6125   2.0625   0.8343 C.2            1 <1>                0.0000
      6 N6          -0.8699   0.9814   0.7494 N.2            1 <1>                0.0000
      7 C7          -0.6860   0.1837   1.8080 C.2            1 <1>                0.0000
      8 N8           0.0112  -0.9746   2.0202 N.pl3          1 <1>                0.0000
      9 C9          -0.1753  -1.3326   3.3239 C.2            1 <1>                0.0000
     10 N10         -0.9421  -0.4632   3.9145 N.2            1 <1>                0.0000
     11 C11         -1.2923   0.5011   3.0288 C.2            1 <1>                0.0000
     12 C12         -2.0889   1.6675   3.1062 C.2            1 <1>                0.0000
     13 O13         -2.6358   1.9824   4.1493 O.2            1 <1>                0.0000
     14 N14         -2.2243   2.4268   1.9965 N.am           1 <1>                0.0000
     15 H15         -2.7656   3.2312   2.0254 H              1 <1>                0.0000
     16 C16          0.8111  -1.6983   1.0289 C.3            1 <1>                0.0000
     17 C17          2.2595  -1.1614   1.0109 C.3            1 <1>                0.0000
     18 C18          3.1241  -2.4211   0.7809 C.3            1 <1>                0.0000
     19 O19          4.0086  -2.6296   1.8837 O.3            1 <1>                0.0000
     20 C20          2.0958  -3.5701   0.6871 C.3            1 <1>                0.0000
     21 C21          2.6456  -4.8327   1.3539 C.3            1 <1>                0.0000
     22 O22          1.7315  -5.9130   1.1550 O.3            1 <1>                0.0000
     23 P23          1.9906  -7.3968   1.7236 P.3            1 <1>                0.0000
     24 O24          1.9852  -7.3642   3.2899 O.co2          1 <1>                0.0000
     25 O25          0.8592  -8.3550   1.2173 O.co2          1 <1>                0.0000
     26 O26          3.3795  -7.9151   1.2168 O.co2          1 <1>                0.0000
     27 O27          0.9373  -3.0878   1.4020 O.3            1 <1>                0.0000
     28 C28         -1.8881   3.0754  -2.6914 C.ar           1 <1>                0.0000
     29 C29         -2.3920   4.3591  -2.5962 C.ar           1 <1>                0.0000
     30 C30         -3.0932   4.9066  -3.6542 C.ar           1 <1>                0.0000
     31 C31         -3.2901   4.1707  -4.8077 C.ar           1 <1>                0.0000
     32 C32         -2.7854   2.8873  -4.9032 C.ar           1 <1>                0.0000
     33 C33         -2.0805   2.3413  -3.8468 C.ar           1 <1>                0.0000
     34 H34          1.1702   4.8422  -1.5472 H              1 <1>                0.0000
     35 H35          0.8219   2.6565  -2.4457 H              1 <1>                0.0000
     36 H36          0.8389   2.6470  -0.6658 H              1 <1>                0.0000
     37 H37         -1.1111   1.3927  -1.6335 H              1 <1>                0.0000
     38 H38         -2.3137   3.6534  -0.2298 H              1 <1>                0.0000
     39 H39          0.2494  -2.2069   3.7946 H              1 <1>                0.0000
     40 H40          0.3597  -1.6103   0.0406 H              1 <1>                0.0000
     41 H41          2.3937  -0.4518   0.1944 H              1 <1>                0.0000
     42 H42          2.5067  -0.6976   1.9658 H              1 <1>                0.0000
     43 H43          3.6875  -2.3333  -0.1480 H              1 <1>                0.0000
     44 H44          4.6369  -1.9083   2.0257 H              1 <1>                0.0000
     45 H45          1.8447  -3.7706  -0.3545 H              1 <1>                0.0000
     46 H46          3.6094  -5.0864   0.9125 H              1 <1>                0.0000
     47 H47          2.7707  -4.6545   2.4219 H              1 <1>                0.0000
     48 H48         -2.2382   4.9341  -1.6950 H              1 <1>                0.0000
     49 H49         -3.4875   5.9093  -3.5795 H              1 <1>                0.0000
     50 H50         -3.8385   4.5982  -5.6340 H              1 <1>                0.0000
     51 H51         -2.9395   2.3122  -5.8043 H              1 <1>                0.0000
     52 H52         -1.6862   1.3387  -3.9215 H              1 <1>                0.0000
@<TRIPOS>BOND
    1    1    2 1     
    2    1   34 1     
    3    2    3 1     
    4    2   35 1     
    5    2   36 1     
    6    3    4 1     
    7    3   28 1     
    8    3   37 1     
    9    4    5 1     
   10    4   38 1     
   11    5   14 1     
   12    5    6 2     
   13    6    7 1     
   14    7   11 2     
   15    7    8 1     
   16    8    9 1     
   17    8   16 1     
   18    9   10 2     
   19    9   39 1     
   20   10   11 1     
   21   11   12 1     
   22   12   13 2     
   23   12   14 am    
   24   14   15 1     
   25   16   27 1     
   26   16   17 1     
   27   16   40 1     
   28   17   18 1     
   29   17   41 1     
   30   17   42 1     
   31   18   19 1     
   32   18   20 1     
   33   18   43 1     
   34   19   44 1     
   35   20   21 1     
   36   20   27 1     
   37   20   45 1     
   38   21   22 1     
   39   21   46 1     
   40   21   47 1     
   41   22   23 1     
   42   23   24 ar    
   43   23   25 ar    
   44   23   26 ar    
   45   28   33 ar    
   46   28   29 ar    
   47   29   30 ar    
   48   29   48 1     
   49   30   31 ar    
   50   30   49 1     
   51   31   32 ar    
   52   31   50 1     
   53   32   33 ar    
   54   32   51 1     
   55   33   52 1     
@<TRIPOS>SUBSTRUCTURE
      1 ****           1
@<TRIPOS>SET
DONOR_HYDROGENS      STATIC     ATOMS    <user>   **** ""
4 34 38 15 44
ATOM$RED        STATIC     ATOMS    COLORGROUP SYSTEM
4 34 38 15 44
