#       Name:                GT1
#       Creating user name   gbret
#       Creation time:       Fri Sep  9 08:56:16 2016


#       File generated by GOLD software.
#

@<TRIPOS>MOLECULE
GT1
    29    29     1
SMALL
NO_CHARGES


@<TRIPOS>ATOM
      1 C1          -1.1056   3.5621  -0.4452 C.3            1 <1>                0.0000
      2 O2          -1.0862   2.1332  -0.4531 O.3            1 <1>                0.0000
      3 C3          -0.4149   1.5549   0.6680 C.3            1 <1>                0.0000
      4 C4          -0.4550   0.0525   0.5573 C.ar           1 <1>                0.0000
      5 C5          -1.5059  -0.6749   1.1072 C.ar           1 <1>                0.0000
      6 O6          -2.5182  -0.0407   1.7555 O.3            1 <1>                0.0000
      7 C7          -1.5060  -2.0565   0.9839 C.ar           1 <1>                0.0000
      8 C8          -2.6378  -2.8577   1.5739 C.3            1 <1>                0.0000
      9 N9          -0.5264  -2.6759   0.3555 N.ar           1 <1>                0.0000
     10 C10          0.4837  -2.0165  -0.1767 C.ar           1 <1>                0.0000
     11 C11          0.5507  -0.6378  -0.0995 C.ar           1 <1>                0.0000
     12 C12          1.7105   0.1046  -0.7117 C.3            1 <1>                0.0000
     13 O13          2.6095  -0.8291  -1.3133 O.3            1 <1>                0.0000
     14 P14          3.9631  -0.3847  -2.0633 P.3            1 <1>                0.0000
     15 O15          4.9460   0.2606  -1.0279 O.co2          1 <1>                0.0000
     16 O16          4.6380  -1.6414  -2.7110 O.co2          1 <1>                0.0000
     17 O17          3.6224   0.6593  -3.1806 O.co2          1 <1>                0.0000
     18 H18         -0.0830   3.9394  -0.4530 H              1 <1>                0.0000
     19 H19         -1.6328   3.9232  -1.3283 H              1 <1>                0.0000
     20 H20         -1.6158   3.9136   0.4516 H              1 <1>                0.0000
     21 H21          0.6220   1.8905   0.6834 H              1 <1>                0.0000
     22 H22         -0.9108   1.8648   1.5879 H              1 <1>                0.0000
     23 H23         -3.2558   0.2104   1.1828 H              1 <1>                0.0000
     24 H24         -3.4277  -2.9719   0.8316 H              1 <1>                0.0000
     25 H25         -2.2716  -3.8410   1.8690 H              1 <1>                0.0000
     26 H26         -3.0327  -2.3397   2.4479 H              1 <1>                0.0000
     27 H27          1.2673  -2.5604  -0.6832 H              1 <1>                0.0000
     28 H28          1.3408   0.7938  -1.4709 H              1 <1>                0.0000
     29 H29          2.2334   0.6646   0.0636 H              1 <1>                0.0000
@<TRIPOS>BOND
    1    1    2 1     
    2    1   18 1     
    3    1   19 1     
    4    1   20 1     
    5    2    3 1     
    6    3    4 1     
    7    3   21 1     
    8    3   22 1     
    9    4   11 ar    
   10    4    5 ar    
   11    5    6 1     
   12    5    7 ar    
   13    6   23 1     
   14    7    8 1     
   15    7    9 ar    
   16    8   24 1     
   17    8   25 1     
   18    8   26 1     
   19    9   10 ar    
   20   10   11 ar    
   21   10   27 1     
   22   11   12 1     
   23   12   13 1     
   24   12   28 1     
   25   12   29 1     
   26   13   14 1     
   27   14   15 ar    
   28   14   16 ar    
   29   14   17 ar    
@<TRIPOS>SUBSTRUCTURE
      1 ****           1
@<TRIPOS>SET
DONOR_HYDROGENS      STATIC     ATOMS    <user>   **** ""
1 23
ATOM$RED        STATIC     ATOMS    COLORGROUP SYSTEM
1 23
