#       Name:                GTL
#       Creating user name   gbret
#       Creation time:       Fri Sep  9 08:57:11 2016


#       File generated by GOLD software.
#

@<TRIPOS>MOLECULE
GTL
    26    26     1
SMALL
NO_CHARGES


@<TRIPOS>ATOM
      1 O1           2.1987   2.5844   0.7720 O.3            1 <1>                0.0000
      2 C2           2.2181   1.1555   0.7641 C.3            1 <1>                0.0000
      3 C3           0.7827   0.6260   0.7750 C.3            1 <1>                0.0000
      4 N4           0.1107   0.9969  -0.4799 N.pl3          1 <1>                0.0000
      5 C5          -1.1180   0.4108  -0.7486 C.2            1 <1>                0.0000
      6 N6          -2.1216   1.1139  -1.1577 N.pl3          1 <1>                0.0000
      7 H7          -2.9723   0.6848  -1.3399 H              1 <1>                0.0000
      8 O8          -1.9800   2.5110  -1.3400 O.3            1 <1>                0.0000
      9 C9          -1.2368  -1.0846  -0.5443 C.3            1 <1>                0.0000
     10 O10         -0.5242  -1.7695  -1.5765 O.3            1 <1>                0.0000
     11 C11         -0.6329  -1.4357   0.8202 C.3            1 <1>                0.0000
     12 O12         -0.6213  -2.8551   0.9857 O.3            1 <1>                0.0000
     13 C13          0.7997  -0.9011   0.8924 C.3            1 <1>                0.0000
     14 O14          1.5682  -1.4525  -0.1788 O.3            1 <1>                0.0000
     15 H15          3.0766   2.9897   0.7658 H              1 <1>                0.0000
     16 H16          2.7283   0.8040  -0.1327 H              1 <1>                0.0000
     17 H17          2.7453   0.7945   1.6472 H              1 <1>                0.0000
     18 H18          0.2426   1.0515   1.6208 H              1 <1>                0.0000
     19 H19          0.5118   1.6286  -1.0971 H              1 <1>                0.0000
     20 H20         -2.7841   2.9510  -1.6479 H              1 <1>                0.0000
     21 H21         -2.2868  -1.3761  -0.5677 H              1 <1>                0.0000
     22 H22         -0.8447  -1.5789  -2.4687 H              1 <1>                0.0000
     23 H23         -1.2313  -0.9822   1.6104 H              1 <1>                0.0000
     24 H24         -1.4974  -3.2626   0.9483 H              1 <1>                0.0000
     25 H25          1.2466  -1.1872   1.8445 H              1 <1>                0.0000
     26 H26          1.6229  -2.4179  -0.1673 H              1 <1>                0.0000
@<TRIPOS>BOND
    1    1    2 1     
    2    1   15 1     
    3    2    3 1     
    4    2   16 1     
    5    2   17 1     
    6    3   13 1     
    7    3    4 1     
    8    3   18 1     
    9    4    5 2     
   10    4   19 1     
   11    5    6 1     
   12    5    9 1     
   13    6    7 1     
   14    6    8 1     
   15    8   20 1     
   16    9   10 1     
   17    9   11 1     
   18    9   21 1     
   19   10   22 1     
   20   11   12 1     
   21   11   13 1     
   22   11   23 1     
   23   12   24 1     
   24   13   14 1     
   25   13   25 1     
   26   14   26 1     
@<TRIPOS>SUBSTRUCTURE
      1 ****           1
@<TRIPOS>SET
DONOR_HYDROGENS      STATIC     ATOMS    <user>   **** ""
7 15 19 7 20 22 24 26
ATOM$RED        STATIC     ATOMS    COLORGROUP SYSTEM
7 15 19 7 20 22 24 26
