#       Name:                GVA
#       Creating user name   gbret
#       Creation time:       Fri Sep  9 08:59:37 2016


#       File generated by GOLD software.
#

@<TRIPOS>MOLECULE
GVA
    24    23     1
SMALL
NO_CHARGES


@<TRIPOS>ATOM
      1 N1           3.0064   1.6758  -0.0196 N.pl3          1 <1>                0.0000
      2 C2           3.0245   0.3440  -0.0269 C.cat          1 <1>                0.0000
      3 N3           4.1869  -0.3062  -0.0415 N.pl3          1 <1>                0.0000
      4 H4           4.2000  -1.2761  -0.0468 H              1 <1>                0.0000
      5 H5           5.0202   0.1902  -0.0468 H              1 <1>                0.0000
      6 N6           1.8493  -0.3559  -0.0194 N.pl3          1 <1>                0.0000
      7 C7           0.5708   0.3592  -0.0034 C.3            1 <1>                0.0000
      8 C8          -0.5784  -0.6508   0.0022 C.3            1 <1>                0.0000
      9 C9          -1.9136   0.0961   0.0189 C.3            1 <1>                0.0000
     10 C10         -3.0629  -0.9138   0.0245 C.3            1 <1>                0.0000
     11 C11         -4.3780  -0.1782   0.0410 C.2            1 <1>                0.0000
     12 O12         -4.3946   1.0409   0.0477 O.co2          1 <1>                0.0000
     13 O13         -5.4255  -0.8021   0.0476 O.co2          1 <1>                0.0000
     14 H14          3.8398   2.1722  -0.0248 H              1 <1>                0.0000
     15 H15          2.1599   2.1494  -0.0130 H              1 <1>                0.0000
     16 H16          1.8625  -1.3258  -0.0248 H              1 <1>                0.0000
     17 H17          0.5131   0.9802   0.8905 H              1 <1>                0.0000
     18 H18          0.4961   0.9898  -0.8893 H              1 <1>                0.0000
     19 H19         -0.5207  -1.2718  -0.8917 H              1 <1>                0.0000
     20 H20         -0.5037  -1.2813   0.8881 H              1 <1>                0.0000
     21 H21         -1.9714   0.7172   0.9129 H              1 <1>                0.0000
     22 H22         -1.9884   0.7267  -0.8670 H              1 <1>                0.0000
     23 H23         -3.0051  -1.5349  -0.8694 H              1 <1>                0.0000
     24 H24         -2.9882  -1.5444   0.9104 H              1 <1>                0.0000
@<TRIPOS>BOND
    1    1    2 ar    
    2    1   14 1     
    3    1   15 1     
    4    2    3 ar    
    5    2    6 ar    
    6    3    4 1     
    7    3    5 1     
    8    6    7 1     
    9    6   16 1     
   10    7    8 1     
   11    7   17 1     
   12    7   18 1     
   13    8    9 1     
   14    8   19 1     
   15    8   20 1     
   16    9   10 1     
   17    9   21 1     
   18    9   22 1     
   19   10   11 1     
   20   10   23 1     
   21   10   24 1     
   22   11   12 ar    
   23   11   13 ar    
@<TRIPOS>SUBSTRUCTURE
      1 ****           1
@<TRIPOS>SET
DONOR_HYDROGENS      STATIC     ATOMS    <user>   **** ""
5 14 15 4 5 16
ATOM$RED        STATIC     ATOMS    COLORGROUP SYSTEM
5 14 15 4 5 16
