#       Name:                GVF
#       Creating user name   gbret
#       Creation time:       Fri Sep  9 08:59:57 2016


#       File generated by GOLD software.
#

@<TRIPOS>MOLECULE
GVF
    28    28     1
SMALL
NO_CHARGES


@<TRIPOS>ATOM
      1 O1           0.8110  -0.9923  -3.6436 O.co2          1 <1>                0.0000
      2 P2           0.5986   0.5547  -3.7707 P.3            1 <1>                0.0000
      3 O3           1.9759   1.2853  -3.6170 O.co2          1 <1>                0.0000
      4 O4          -0.0134   0.8841  -5.1748 O.co2          1 <1>                0.0000
      5 O5          -0.4061   1.0551  -2.6165 O.3            1 <1>                0.0000
      6 C6           0.0378   0.8133  -1.3532 C.ar           1 <1>                0.0000
      7 C7           1.0453   1.5956  -0.8111 C.ar           1 <1>                0.0000
      8 C8           1.4984   1.3521   0.4725 C.ar           1 <1>                0.0000
      9 C9           0.9468   0.3247   1.2216 C.ar           1 <1>                0.0000
     10 O10          1.3942   0.0875   2.4846 O.3            1 <1>                0.0000
     11 P11          0.8727   1.1514   3.5747 P.3            1 <1>                0.0000
     12 O12         -0.6866   1.0562   3.6929 O.co2          1 <1>                0.0000
     13 O13          1.5221   0.8355   4.9650 O.co2          1 <1>                0.0000
     14 O14          1.2751   2.5978   3.1269 O.co2          1 <1>                0.0000
     15 C15         -0.0640  -0.4631   0.6828 C.ar           1 <1>                0.0000
     16 O16         -0.6069  -1.4720   1.4174 O.3            1 <1>                0.0000
     17 P17          0.1797  -2.8710   1.2905 P.3            1 <1>                0.0000
     18 O18          1.6112  -2.7234   1.9096 O.co2          1 <1>                0.0000
     19 O19         -0.6093  -3.9852   2.0590 O.co2          1 <1>                0.0000
     20 O20          0.3024  -3.2659  -0.2206 O.co2          1 <1>                0.0000
     21 C21         -0.5230  -0.2149  -0.6042 C.ar           1 <1>                0.0000
     22 O22         -1.5123  -0.9838  -1.1353 O.3            1 <1>                0.0000
     23 P23         -2.9926  -0.3897  -0.9161 P.3            1 <1>                0.0000
     24 O24         -3.1262   0.9732  -1.6770 O.co2          1 <1>                0.0000
     25 O25         -4.0498  -1.4037  -1.4716 O.co2          1 <1>                0.0000
     26 O26         -3.2421  -0.1606   0.6135 O.co2          1 <1>                0.0000
     27 H27          1.4775   2.3967  -1.3923 H              1 <1>                0.0000
     28 H28          2.2838   1.9633   0.8919 H              1 <1>                0.0000
@<TRIPOS>BOND
    1    1    2 ar    
    2    2    3 ar    
    3    2    4 ar    
    4    2    5 1     
    5    5    6 1     
    6    6   21 ar    
    7    6    7 ar    
    8    7    8 ar    
    9    7   27 1     
   10    8    9 ar    
   11    8   28 1     
   12    9   10 1     
   13    9   15 ar    
   14   10   11 1     
   15   11   12 ar    
   16   11   13 ar    
   17   11   14 ar    
   18   15   16 1     
   19   15   21 ar    
   20   16   17 1     
   21   17   18 ar    
   22   17   19 ar    
   23   17   20 ar    
   24   21   22 1     
   25   22   23 1     
   26   23   24 ar    
   27   23   25 ar    
   28   23   26 ar    
@<TRIPOS>SUBSTRUCTURE
      1 ****           1
