#       Name:                GXS
#       Creating user name   gbret
#       Creation time:       Fri Sep  9 09:02:11 2016


#       File generated by GOLD software.
#

@<TRIPOS>MOLECULE
GXS
    15    14     1
SMALL
NO_CHARGES


@<TRIPOS>ATOM
      1 O1          -0.4358   1.5812   1.1153 O.3            1 <1>                0.0000
      2 C2          -0.4164   0.1523   1.1074 C.3            1 <1>                0.0000
      3 C3           0.2997  -0.3411  -0.1514 C.3            1 <1>                0.0000
      4 C4          -0.4956   0.0535  -1.3691 C.2            1 <1>                0.0000
      5 O5          -1.5287   0.6663  -1.2431 O.2            1 <1>                0.0000
      6 C6          -0.0062  -0.3131  -2.7317 C.2            1 <1>                0.0000
      7 O7          -0.6503   0.0065  -3.7179 O.co2          1 <1>                0.0000
      8 O8           1.0377  -0.9323  -2.8590 O.co2          1 <1>                0.0000
      9 C9           0.3124  -0.3469   2.3283 C.2            1 <1>                0.0000
     10 O10          0.7683   0.4397   3.1231 O.2            1 <1>                0.0000
     11 H11          0.4421   1.9865   1.1091 H              1 <1>                0.0000
     12 H12         -1.4390  -0.2250   1.1152 H              1 <1>                0.0000
     13 H13          1.2918   0.1073  -0.2044 H              1 <1>                0.0000
     14 H14          0.3931  -1.4265  -0.1144 H              1 <1>                0.0000
     15 H15          0.4271  -1.4082   2.4924 H              1 <1>                0.0000
@<TRIPOS>BOND
    1    1    2 1     
    2    1   11 1     
    3    2    3 1     
    4    2    9 1     
    5    2   12 1     
    6    3    4 1     
    7    3   13 1     
    8    3   14 1     
    9    4    5 2     
   10    4    6 1     
   11    6    7 ar    
   12    6    8 ar    
   13    9   10 2     
   14    9   15 1     
@<TRIPOS>SUBSTRUCTURE
      1 ****           1
@<TRIPOS>SET
DONOR_HYDROGENS      STATIC     ATOMS    <user>   **** ""
1 11
ATOM$RED        STATIC     ATOMS    COLORGROUP SYSTEM
1 11
