#       Name:                H06
#       Creating user name   gbret
#       Creation time:       Fri Sep  9 09:03:52 2016


#       File generated by GOLD software.
#

@<TRIPOS>MOLECULE
H06
    34    35     1
SMALL
NO_CHARGES


@<TRIPOS>ATOM
      1 N1           4.3351   4.8707   0.4507 N.pl3          1 <1>                0.0000
      2 C2           4.3532   3.5385   0.4434 C.2            1 <1>                0.0000
      3 N3           5.5158   2.8882   0.4288 N.pl3          1 <1>                0.0000
      4 H4           6.3491   3.3846   0.4235 H              1 <1>                0.0000
      5 H5           5.5290   1.9183   0.4235 H              1 <1>                0.0000
      6 C6           3.0833   2.7822   0.4515 C.ar           1 <1>                0.0000
      7 C7           1.9515   3.3245   1.0653 C.ar           1 <1>                0.0000
      8 C8           0.7734   2.6234   1.0736 C.ar           1 <1>                0.0000
      9 C9           0.7047   1.3651   0.4670 C.ar           1 <1>                0.0000
     10 C10         -0.5610   0.6112   0.4750 C.2            1 <1>                0.0000
     11 N11         -0.6244  -0.5571  -0.0883 N.2            1 <1>                0.0000
     12 N12         -1.8281  -1.2740  -0.0807 N.am           1 <1>                0.0000
     13 C13         -1.8939  -2.4866  -0.6654 C.2            1 <1>                0.0000
     14 O14         -0.9088  -2.9582  -1.1995 O.2            1 <1>                0.0000
     15 C15         -3.1635  -3.2428  -0.6573 C.ar           1 <1>                0.0000
     16 C16         -3.2436  -4.5062  -1.2563 C.ar           1 <1>                0.0000
     17 C17         -4.4555  -5.1727  -1.2213 C.ar           1 <1>                0.0000
     18 C18         -5.5391  -4.5757  -0.6018 C.ar           1 <1>                0.0000
     19 N19         -5.4343  -3.3840  -0.0456 N.ar           1 <1>                0.0000
     20 C20         -4.3014  -2.7126  -0.0477 C.ar           1 <1>                0.0000
     21 C21          1.8380   0.8230  -0.1477 C.ar           1 <1>                0.0000
     22 C22          3.0140   1.5277  -0.1597 C.ar           1 <1>                0.0000
     23 H23          5.1685   5.3671   0.4455 H              1 <1>                0.0000
     24 H24          3.4886   5.3442   0.4573 H              1 <1>                0.0000
     25 H25          2.0047   4.2962   1.5337 H              1 <1>                0.0000
     26 H26         -0.1012   3.0424   1.5488 H              1 <1>                0.0000
     27 H27         -1.4361   1.0302   0.9494 H              1 <1>                0.0000
     28 H28         -2.6140  -0.8977   0.3454 H              1 <1>                0.0000
     29 H29         -2.3817  -4.9487  -1.7335 H              1 <1>                0.0000
     30 H30         -4.5548  -6.1486  -1.6732 H              1 <1>                0.0000
     31 H31         -6.4864  -5.0936  -0.5734 H              1 <1>                0.0000
     32 H32         -4.2549  -1.7395   0.4184 H              1 <1>                0.0000
     33 H33          1.7858  -0.1487  -0.6161 H              1 <1>                0.0000
     34 H34          3.8891   1.1095  -0.6346 H              1 <1>                0.0000
@<TRIPOS>BOND
    1    1    2 2     
    2    1   23 1     
    3    1   24 1     
    4    2    3 1     
    5    2    6 1     
    6    3    4 1     
    7    3    5 1     
    8    6   22 ar    
    9    6    7 ar    
   10    7    8 ar    
   11    7   25 1     
   12    8    9 ar    
   13    8   26 1     
   14    9   10 1     
   15    9   21 ar    
   16   10   11 2     
   17   10   27 1     
   18   11   12 1     
   19   12   13 am    
   20   12   28 1     
   21   13   14 2     
   22   13   15 1     
   23   15   20 ar    
   24   15   16 ar    
   25   16   17 ar    
   26   16   29 1     
   27   17   18 ar    
   28   17   30 1     
   29   18   19 ar    
   30   18   31 1     
   31   19   20 ar    
   32   20   32 1     
   33   21   22 ar    
   34   21   33 1     
   35   22   34 1     
@<TRIPOS>SUBSTRUCTURE
      1 ****           1
@<TRIPOS>SET
DONOR_HYDROGENS      STATIC     ATOMS    <user>   **** ""
5 23 24 4 5 28
ATOM$RED        STATIC     ATOMS    COLORGROUP SYSTEM
5 23 24 4 5 28
