#       Name:                H16
#       Creating user name   gbret
#       Creation time:       Fri Sep  9 09:04:42 2016


#       File generated by GOLD software.
#

@<TRIPOS>MOLECULE
H16
    44    46     1
SMALL
NO_CHARGES


@<TRIPOS>ATOM
      1 C1           0.3878   3.9480  -1.8811 C.3            1 <1>                0.0000
      2 C2           0.3721   2.4197  -1.9500 C.3            1 <1>                0.0000
      3 C3          -1.0738   1.9282  -2.0440 C.3            1 <1>                0.0000
      4 C4          -1.0966   0.4221  -1.9965 C.2            1 <1>                0.0000
      5 C5          -1.2975  -0.2279  -0.7949 C.2            1 <1>                0.0000
      6 S6          -1.5305   0.6800   0.6971 S.3            1 <1>                0.0000
      7 C7          -0.0641   0.1531   1.6180 C.3            1 <1>                0.0000
      8 C8           1.1906   0.7044   0.9378 C.3            1 <1>                0.0000
      9 C9           2.4302   0.2589   1.7162 C.3            1 <1>                0.0000
     10 C10          2.3513   0.7906   3.1486 C.3            1 <1>                0.0000
     11 C11          1.0966   0.2393   3.8288 C.3            1 <1>                0.0000
     12 C12         -0.1430   0.6847   3.0504 C.3            1 <1>                0.0000
     13 C13         -1.3123  -1.6991  -0.7943 C.ar           1 <1>                0.0000
     14 C14         -1.5109  -2.4186   0.3855 C.ar           1 <1>                0.0000
     15 C15         -1.5192  -3.7961   0.3497 C.ar           1 <1>                0.0000
     16 Cl16        -1.7663  -4.6963   1.8134 Cl             1 <1>                0.0000
     17 C17         -1.3315  -4.4681  -0.8510 C.ar           1 <1>                0.0000
     18 C18         -1.1344  -3.7705  -2.0229 C.ar           1 <1>                0.0000
     19 C19         -1.1225  -2.3798  -2.0087 C.ar           1 <1>                0.0000
     20 N20         -0.9271  -1.6616  -3.1721 N.am           1 <1>                0.0000
     21 H21         -0.7966  -2.1371  -4.0074 H              1 <1>                0.0000
     22 C22         -0.9196  -0.3182  -3.1718 C.2            1 <1>                0.0000
     23 O23         -0.7432   0.2736  -4.2240 O.2            1 <1>                0.0000
     24 H24          1.4097   4.2943  -1.7263 H              1 <1>                0.0000
     25 H25          0.0028   4.3578  -2.8149 H              1 <1>                0.0000
     26 H26         -0.2380   4.2808  -1.0530 H              1 <1>                0.0000
     27 H27          0.9258   2.0899  -2.8290 H              1 <1>                0.0000
     28 H28          0.8372   2.0107  -1.0530 H              1 <1>                0.0000
     29 H29         -1.6482   2.3268  -1.2078 H              1 <1>                0.0000
     30 H30         -1.5130   2.2688  -2.9817 H              1 <1>                0.0000
     31 H31         -0.0186  -0.9358   1.6366 H              1 <1>                0.0000
     32 H32          1.2469   0.3256  -0.0827 H              1 <1>                0.0000
     33 H33          1.1452   1.7933   0.9192 H              1 <1>                0.0000
     34 H34          2.4757  -0.8300   1.7348 H              1 <1>                0.0000
     35 H35          3.3241   0.6517   1.2316 H              1 <1>                0.0000
     36 H36          3.2344   0.4733   3.7032 H              1 <1>                0.0000
     37 H37          2.3058   1.8795   3.1300 H              1 <1>                0.0000
     38 H38          1.1421  -0.8496   3.8474 H              1 <1>                0.0000
     39 H39          1.0403   0.6181   4.8494 H              1 <1>                0.0000
     40 H40         -0.1885   1.7736   3.0318 H              1 <1>                0.0000
     41 H41         -1.0369   0.2920   3.5350 H              1 <1>                0.0000
     42 H42         -1.6568  -1.8986   1.3208 H              1 <1>                0.0000
     43 H43         -1.3397  -5.5479  -0.8664 H              1 <1>                0.0000
     44 H44         -0.9891  -4.3030  -2.9512 H              1 <1>                0.0000
@<TRIPOS>BOND
    1    1    2 1     
    2    1   24 1     
    3    1   25 1     
    4    1   26 1     
    5    2    3 1     
    6    2   27 1     
    7    2   28 1     
    8    3    4 1     
    9    3   29 1     
   10    3   30 1     
   11    4   22 1     
   12    4    5 2     
   13    5    6 1     
   14    5   13 1     
   15    6    7 1     
   16    7   12 1     
   17    7    8 1     
   18    7   31 1     
   19    8    9 1     
   20    8   32 1     
   21    8   33 1     
   22    9   10 1     
   23    9   34 1     
   24    9   35 1     
   25   10   11 1     
   26   10   36 1     
   27   10   37 1     
   28   11   12 1     
   29   11   38 1     
   30   11   39 1     
   31   12   40 1     
   32   12   41 1     
   33   13   19 ar    
   34   13   14 ar    
   35   14   15 ar    
   36   14   42 1     
   37   15   16 1     
   38   15   17 ar    
   39   17   18 ar    
   40   17   43 1     
   41   18   19 ar    
   42   18   44 1     
   43   19   20 1     
   44   20   21 1     
   45   20   22 am    
   46   22   23 2     
@<TRIPOS>SUBSTRUCTURE
      1 ****           1
@<TRIPOS>SET
DONOR_HYDROGENS      STATIC     ATOMS    <user>   **** ""
1 21
ATOM$RED        STATIC     ATOMS    COLORGROUP SYSTEM
1 21
