#       Name:                H6P
#       Creating user name   gbret
#       Creation time:       Fri Sep  9 09:09:13 2016


#       File generated by GOLD software.
#

@<TRIPOS>MOLECULE
H6P
    24    23     1
SMALL
NO_CHARGES


@<TRIPOS>ATOM
      1 C1          -0.8399   1.5609   2.2655 C.3            1 <1>                0.0000
      2 C2          -0.8194   0.0540   2.2572 C.2            1 <1>                0.0000
      3 C3          -0.7967  -0.7064   3.5581 C.3            1 <1>                0.0000
      4 O4          -0.7802  -2.1098   3.2893 O.3            1 <1>                0.0000
      5 C5          -0.8214  -0.5948   1.1192 C.2            1 <1>                0.0000
      6 C6          -0.8441   0.1656  -0.1817 C.3            1 <1>                0.0000
      7 O7           0.1080  -0.4034  -1.0827 O.3            1 <1>                0.0000
      8 P8           0.3525   0.1601  -2.5709 P.3            1 <1>                0.0000
      9 O9          -0.9244  -0.0459  -3.4160 O.co2          1 <1>                0.0000
     10 O10          0.6872   1.6669  -2.5024 O.co2          1 <1>                0.0000
     11 O11          1.5790  -0.6317  -3.2498 O.3            1 <1>                0.0000
     12 P12          2.5662  -0.3196  -4.4827 P.3            1 <1>                0.0000
     13 O13          3.6936   0.6618  -4.0135 O.co2          1 <1>                0.0000
     14 O14          3.2124  -1.6553  -4.9854 O.co2          1 <1>                0.0000
     15 O15          1.7532   0.3385  -5.6491 O.co2          1 <1>                0.0000
     16 H16          0.1827   1.9382   2.2578 H              1 <1>                0.0000
     17 H17         -1.3670   1.9220   1.3824 H              1 <1>                0.0000
     18 H18         -1.3501   1.9124   3.1623 H              1 <1>                0.0000
     19 H19          0.0950  -0.4341   4.1226 H              1 <1>                0.0000
     20 H20         -1.6847  -0.4583   4.1395 H              1 <1>                0.0000
     21 H21         -0.7651  -2.6621   4.0829 H              1 <1>                0.0000
     22 H22         -0.8067  -1.6747   1.1133 H              1 <1>                0.0000
     23 H23         -1.8402   0.1058  -0.6202 H              1 <1>                0.0000
     24 H24         -0.5905   1.2095   0.0032 H              1 <1>                0.0000
@<TRIPOS>BOND
    1    1    2 1     
    2    1   16 1     
    3    1   17 1     
    4    1   18 1     
    5    2    3 1     
    6    2    5 2     
    7    3    4 1     
    8    3   19 1     
    9    3   20 1     
   10    4   21 1     
   11    5    6 1     
   12    5   22 1     
   13    6    7 1     
   14    6   23 1     
   15    6   24 1     
   16    7    8 1     
   17    8    9 ar    
   18    8   10 ar    
   19    8   11 1     
   20   11   12 1     
   21   12   13 ar    
   22   12   14 ar    
   23   12   15 ar    
@<TRIPOS>SUBSTRUCTURE
      1 ****           1
@<TRIPOS>SET
DONOR_HYDROGENS      STATIC     ATOMS    <user>   **** ""
1 21
ATOM$RED        STATIC     ATOMS    COLORGROUP SYSTEM
1 21
