#       Name:                HIA
#       Creating user name   gbret
#       Creation time:       Fri Sep  9 09:21:50 2016


#       File generated by GOLD software.
#

@<TRIPOS>MOLECULE
HIA
    22    22     1
SMALL
NO_CHARGES


@<TRIPOS>ATOM
      1 N1           2.0358   2.5024  -0.6311 N.am           1 <1>                0.0000
      2 C2           2.0541   1.1547  -0.6385 C.2            1 <1>                0.0000
      3 O3           3.1125   0.5627  -0.6518 O.2            1 <1>                0.0000
      4 C4           0.7594   0.3835  -0.6303 C.3            1 <1>                0.0000
      5 N5           1.0001  -0.9826  -1.1136 N.4            1 <1>                0.0000
      6 H6           1.3646  -0.9474  -2.0538 H              1 <1>                0.0000
      7 H7           1.6678  -1.4399  -0.5109 H              1 <1>                0.0000
      8 H8           0.1332  -1.4989  -1.1081 H              1 <1>                0.0000
      9 C9           0.2066   0.3301   0.7954 C.3            1 <1>                0.0000
     10 C10         -1.1465  -0.3333   0.7850 C.2            1 <1>                0.0000
     11 C11         -2.3293   0.2596   0.5345 C.2            1 <1>                0.0000
     12 N12         -3.2884  -0.6739   0.6225 N.2            1 <1>                0.0000
     13 C13         -2.7447  -1.8229   0.9181 C.2            1 <1>                0.0000
     14 N14         -1.4087  -1.6556   1.0226 N.pl3          1 <1>                0.0000
     15 H15         -0.7573  -2.3428   1.2331 H              1 <1>                0.0000
     16 H16          2.8692   2.9987  -0.6404 H              1 <1>                0.0000
     17 H17          1.1894   2.9759  -0.6205 H              1 <1>                0.0000
     18 H18          0.0381   0.8775  -1.2813 H              1 <1>                0.0000
     19 H19          0.8865  -0.2411   1.4275 H              1 <1>                0.0000
     20 H20          0.1116   1.3431   1.1864 H              1 <1>                0.0000
     21 H21         -2.4795   1.3039   0.3032 H              1 <1>                0.0000
     22 H22         -3.2749  -2.7541   1.0528 H              1 <1>                0.0000
@<TRIPOS>BOND
    1    1    2 am    
    2    1   16 1     
    3    1   17 1     
    4    2    3 2     
    5    2    4 1     
    6    4    5 1     
    7    4    9 1     
    8    4   18 1     
    9    5    6 1     
   10    5    7 1     
   11    5    8 1     
   12    9   10 1     
   13    9   19 1     
   14    9   20 1     
   15   10   14 1     
   16   10   11 2     
   17   11   12 1     
   18   11   21 1     
   19   12   13 2     
   20   13   14 1     
   21   13   22 1     
   22   14   15 1     
@<TRIPOS>SUBSTRUCTURE
      1 ****           1
@<TRIPOS>SET
DONOR_HYDROGENS      STATIC     ATOMS    <user>   **** ""
6 16 17 6 7 8 15
ATOM$RED        STATIC     ATOMS    COLORGROUP SYSTEM
6 16 17 6 7 8 15
