#       Name:                HOL
#       Creating user name   gbret
#       Creation time:       Fri Sep  9 09:29:01 2016


#       File generated by GOLD software.
#

@<TRIPOS>MOLECULE
HOL
   107   111     1
SMALL
NO_CHARGES


@<TRIPOS>ATOM
      1 C1           7.8758   9.5703   1.7504 C.3            1 <1>                0.0000
      2 C2           7.7766   8.0580   1.9597 C.3            1 <1>                0.0000
      3 C3           8.3060   7.6996   3.3497 C.3            1 <1>                0.0000
      4 C4           6.3148   7.6217   1.8426 C.3            1 <1>                0.0000
      5 C5           6.2294   6.0965   1.9274 C.3            1 <1>                0.0000
      6 C6           4.7676   5.6603   1.8103 C.3            1 <1>                0.0000
      7 C7           4.6821   4.1350   1.8952 C.3            1 <1>                0.0000
      8 C8           5.1317   3.6755   3.2836 C.3            1 <1>                0.0000
      9 C9           3.2381   3.6909   1.6537 C.3            1 <1>                0.0000
     10 C10          2.7451   4.1945   0.2743 C.3            1 <1>                0.0000
     11 C11          2.3115   2.9341  -0.5229 C.3            1 <1>                0.0000
     12 C12          1.9947   1.9211   0.5829 C.3            1 <1>                0.0000
     13 C13          2.0534   0.4596   0.1763 C.3            1 <1>                0.0000
     14 C14          0.9407   0.1649  -0.8361 C.3            1 <1>                0.0000
     15 C15          0.8956  -1.3112  -1.1043 C.2            1 <1>                0.0000
     16 C16          1.2996  -2.2005  -0.2451 C.2            1 <1>                0.0000
     17 C17          1.1951  -3.6678  -0.6257 C.3            1 <1>                0.0000
     18 C18          0.4704  -4.4097   0.5012 C.3            1 <1>                0.0000
     19 C19          1.1975  -4.1618   1.8240 C.3            1 <1>                0.0000
     20 C20          1.1312  -2.6748   2.1777 C.3            1 <1>                0.0000
     21 C21          1.8626  -1.8644   1.1038 C.3            1 <1>                0.0000
     22 C22          3.3367  -2.2738   1.1207 C.3            1 <1>                0.0000
     23 C23          1.7929  -0.3825   1.4328 C.3            1 <1>                0.0000
     24 C24          2.7792  -0.0554   2.5505 C.3            1 <1>                0.0000
     25 C25          2.8045   1.4482   2.8663 C.3            1 <1>                0.0000
     26 C26          3.1584   2.1693   1.5796 C.3            1 <1>                0.0000
     27 C27          4.4639   1.6081   1.0124 C.3            1 <1>                0.0000
     28 O28         -0.8945  -3.9247   0.6007 O.3            1 <1>                0.0000
     29 C29         -1.8241  -4.5594  -0.1380 C.2            1 <1>                0.0000
     30 O30         -1.5036  -5.4931  -0.8465 O.2            1 <1>                0.0000
     31 N31         -3.1103  -4.1592  -0.0917 N.am           1 <1>                0.0000
     32 C32         -4.1218  -4.8498  -0.8955 C.3            1 <1>                0.0000
     33 C33         -5.4883  -4.2030  -0.6611 C.3            1 <1>                0.0000
     34 C34         -6.5447  -4.9243  -1.5006 C.3            1 <1>                0.0000
     35 O35         -7.8211  -4.3201  -1.2817 O.3            1 <1>                0.0000
     36 C36         -8.8840  -4.9223  -2.0231 C.3            1 <1>                0.0000
     37 C37        -10.2277  -4.2368  -1.6899 C.3            1 <1>                0.0000
     38 C38        -10.9813  -4.2126  -3.0386 C.3            1 <1>                0.0000
     39 O39        -11.2493  -2.8670  -3.4382 O.3            1 <1>                0.0000
     40 C40        -10.0037  -4.8863  -4.0270 C.3            1 <1>                0.0000
     41 C41        -10.0731  -4.2026  -5.3940 C.3            1 <1>                0.0000
     42 O42         -9.2508  -4.9113  -6.3233 O.3            1 <1>                0.0000
     43 P43         -9.0858  -4.4696  -7.8626 P.3            1 <1>                0.0000
     44 O44         -8.3774  -3.0739  -7.9324 O.co2          1 <1>                0.0000
     45 O45         -8.2207  -5.5328  -8.6213 O.co2          1 <1>                0.0000
     46 O46        -10.4988  -4.3720  -8.5322 O.co2          1 <1>                0.0000
     47 O47         -8.6980  -4.7015  -3.4382 O.3            1 <1>                0.0000
     48 H48          8.9173   9.8811   1.8339 H              1 <1>                0.0000
     49 H49          7.4987   9.8256   0.7601 H              1 <1>                0.0000
     50 H50          7.2823  10.0817   2.5082 H              1 <1>                0.0000
     51 H51          8.3702   7.5466   1.2019 H              1 <1>                0.0000
     52 H52          8.2353   6.6222   3.4988 H              1 <1>                0.0000
     53 H53          9.3474   8.0104   3.4332 H              1 <1>                0.0000
     54 H54          7.7124   8.2110   4.1075 H              1 <1>                0.0000
     55 H55          5.7376   8.0637   2.6547 H              1 <1>                0.0000
     56 H56          5.9115   7.9556   0.8866 H              1 <1>                0.0000
     57 H57          6.8066   5.6545   1.1153 H              1 <1>                0.0000
     58 H58          6.6327   5.7626   2.8834 H              1 <1>                0.0000
     59 H59          4.1903   6.1022   2.6225 H              1 <1>                0.0000
     60 H60          4.3642   5.9941   0.8543 H              1 <1>                0.0000
     61 H61          5.3298   3.6922   1.1385 H              1 <1>                0.0000
     62 H62          4.5310   4.1749   4.0437 H              1 <1>                0.0000
     63 H63          5.0019   2.5966   3.3689 H              1 <1>                0.0000
     64 H64          6.1824   3.9275   3.4272 H              1 <1>                0.0000
     65 H65          2.5909   4.0647   2.4472 H              1 <1>                0.0000
     66 H66          1.8964   4.8663   0.4028 H              1 <1>                0.0000
     67 H67          3.5532   4.7075  -0.2473 H              1 <1>                0.0000
     68 H68          1.4244   3.1423  -1.1209 H              1 <1>                0.0000
     69 H69          3.1267   2.5762  -1.1518 H              1 <1>                0.0000
     70 H70          1.0380   2.1561   1.0492 H              1 <1>                0.0000
     71 H71          3.0326   0.2231  -0.2400 H              1 <1>                0.0000
     72 H72         -0.0169   0.4906  -0.4297 H              1 <1>                0.0000
     73 H73          1.1431   0.6978  -1.7651 H              1 <1>                0.0000
     74 H74          0.5097  -1.6507  -2.0541 H              1 <1>                0.0000
     75 H75          0.6306  -3.7670  -1.5529 H              1 <1>                0.0000
     76 H76          2.1936  -4.0848  -0.7570 H              1 <1>                0.0000
     77 H77          0.4617  -5.4782   0.2860 H              1 <1>                0.0000
     78 H78          0.7223  -4.7439   2.6136 H              1 <1>                0.0000
     79 H79          2.2398  -4.4656   1.7275 H              1 <1>                0.0000
     80 H80          0.0893  -2.3584   2.2254 H              1 <1>                0.0000
     81 H81          1.6065  -2.5094   3.1446 H              1 <1>                0.0000
     82 H82          3.4203  -3.3397   0.9087 H              1 <1>                0.0000
     83 H83          3.8795  -1.7090   0.3628 H              1 <1>                0.0000
     84 H84          3.7607  -2.0644   2.1028 H              1 <1>                0.0000
     85 H85          0.7895  -0.1581   1.7947 H              1 <1>                0.0000
     86 H86          2.4924  -0.6023   3.4487 H              1 <1>                0.0000
     87 H87          3.7773  -0.3715   2.2472 H              1 <1>                0.0000
     88 H88          1.8234   1.7712   3.2145 H              1 <1>                0.0000
     89 H89          3.5566   1.6553   3.6275 H              1 <1>                0.0000
     90 H90          4.3458   0.5427   0.8148 H              1 <1>                0.0000
     91 H91          4.7088   2.1248   0.0845 H              1 <1>                0.0000
     92 H92          5.2672   1.7569   1.7340 H              1 <1>                0.0000
     93 H93         -3.3662  -3.4138   0.4739 H              1 <1>                0.0000
     94 H94         -3.8605  -4.7747  -1.9511 H              1 <1>                0.0000
     95 H95         -4.1621  -5.8996  -0.6050 H              1 <1>                0.0000
     96 H96         -5.7496  -4.2781   0.3944 H              1 <1>                0.0000
     97 H97         -5.4481  -3.1532  -0.9516 H              1 <1>                0.0000
     98 H98         -6.2834  -4.8492  -2.5561 H              1 <1>                0.0000
     99 H99         -6.5850  -5.9741  -1.2101 H              1 <1>                0.0000
    100 H100        -8.9375  -5.9898  -1.8094 H              1 <1>                0.0000
    101 H101       -10.7813  -4.8193  -0.9535 H              1 <1>                0.0000
    102 H102       -10.0596  -3.2225  -1.3281 H              1 <1>                0.0000
    103 H103       -11.9087  -4.7810  -2.9682 H              1 <1>                0.0000
    104 H104       -11.8102  -2.3777  -2.8209 H              1 <1>                0.0000
    105 H105       -10.2321  -5.9478  -4.1223 H              1 <1>                0.0000
    106 H106       -11.1040  -4.2021  -5.7480 H              1 <1>                0.0000
    107 H107        -9.7189  -3.1756  -5.3051 H              1 <1>                0.0000
@<TRIPOS>BOND
    1    1    2 1     
    2    1   48 1     
    3    1   49 1     
    4    1   50 1     
    5    2    3 1     
    6    2    4 1     
    7    2   51 1     
    8    3   52 1     
    9    3   53 1     
   10    3   54 1     
   11    4    5 1     
   12    4   55 1     
   13    4   56 1     
   14    5    6 1     
   15    5   57 1     
   16    5   58 1     
   17    6    7 1     
   18    6   59 1     
   19    6   60 1     
   20    7    8 1     
   21    7    9 1     
   22    7   61 1     
   23    8   62 1     
   24    8   63 1     
   25    8   64 1     
   26    9   26 1     
   27    9   10 1     
   28    9   65 1     
   29   10   11 1     
   30   10   66 1     
   31   10   67 1     
   32   11   12 1     
   33   11   68 1     
   34   11   69 1     
   35   12   26 1     
   36   12   13 1     
   37   12   70 1     
   38   13   23 1     
   39   13   14 1     
   40   13   71 1     
   41   14   15 1     
   42   14   72 1     
   43   14   73 1     
   44   15   16 2     
   45   15   74 1     
   46   16   21 1     
   47   16   17 1     
   48   17   18 1     
   49   17   75 1     
   50   17   76 1     
   51   18   19 1     
   52   18   28 1     
   53   18   77 1     
   54   19   20 1     
   55   19   78 1     
   56   19   79 1     
   57   20   21 1     
   58   20   80 1     
   59   20   81 1     
   60   21   22 1     
   61   21   23 1     
   62   22   82 1     
   63   22   83 1     
   64   22   84 1     
   65   23   24 1     
   66   23   85 1     
   67   24   25 1     
   68   24   86 1     
   69   24   87 1     
   70   25   26 1     
   71   25   88 1     
   72   25   89 1     
   73   26   27 1     
   74   27   90 1     
   75   27   91 1     
   76   27   92 1     
   77   28   29 1     
   78   29   30 2     
   79   29   31 am    
   80   31   32 1     
   81   31   93 1     
   82   32   33 1     
   83   32   94 1     
   84   32   95 1     
   85   33   34 1     
   86   33   96 1     
   87   33   97 1     
   88   34   35 1     
   89   34   98 1     
   90   34   99 1     
   91   35   36 1     
   92   36   47 1     
   93   36   37 1     
   94   36  100 1     
   95   37   38 1     
   96   37  101 1     
   97   37  102 1     
   98   38   39 1     
   99   38   40 1     
  100   38  103 1     
  101   39  104 1     
  102   40   41 1     
  103   40   47 1     
  104   40  105 1     
  105   41   42 1     
  106   41  106 1     
  107   41  107 1     
  108   42   43 1     
  109   43   44 ar    
  110   43   45 ar    
  111   43   46 ar    
@<TRIPOS>SUBSTRUCTURE
      1 ****           1
@<TRIPOS>SET
DONOR_HYDROGENS      STATIC     ATOMS    <user>   **** ""
2 93 104
ATOM$RED        STATIC     ATOMS    COLORGROUP SYSTEM
2 93 104
