#       Name:                HOZ
#       Creating user name   gbret
#       Creation time:       Fri Sep  9 09:29:34 2016


#       File generated by GOLD software.
#

@<TRIPOS>MOLECULE
HOZ
    21    20     1
SMALL
NO_CHARGES


@<TRIPOS>ATOM
      1 N1           1.5255   2.5731   0.2859 N.3            1 <1>                0.0000
      2 C2           1.5454   1.1042   0.2778 C.3            1 <1>                0.0000
      3 C3           0.1100   0.5747   0.2887 C.3            1 <1>                0.0000
      4 N4          -0.6351   1.1565  -0.8357 N.4            1 <1>                0.0000
      5 H5          -0.6468   2.1616  -0.7472 H              1 <1>                0.0000
      6 H6          -0.1887   0.9004  -1.7035 H              1 <1>                0.0000
      7 H7          -1.5817   0.8073  -0.8285 H              1 <1>                0.0000
      8 C8           0.1276  -0.9494   0.1546 C.3            1 <1>                0.0000
      9 C9          -1.2973  -1.4898   0.2904 C.3            1 <1>                0.0000
     10 C10         -1.2799  -2.9909   0.1583 C.2            1 <1>                0.0000
     11 O11         -0.2255  -3.5744  -0.0272 O.co2          1 <1>                0.0000
     12 O12         -2.3202  -3.6219   0.2370 O.co2          1 <1>                0.0000
     13 H13          2.4624   2.9475   0.2790 H              1 <1>                0.0000
     14 H14          0.9870   2.9317  -0.4884 H              1 <1>                0.0000
     15 H15          2.0556   0.7527  -0.6190 H              1 <1>                0.0000
     16 H16          2.0726   0.7432   1.1609 H              1 <1>                0.0000
     17 H17         -0.3723   0.8513   1.2262 H              1 <1>                0.0000
     18 H18          0.5288  -1.2236  -0.8211 H              1 <1>                0.0000
     19 H19          0.7542  -1.3758   0.9380 H              1 <1>                0.0000
     20 H20         -1.6984  -1.2155   1.2661 H              1 <1>                0.0000
     21 H21         -1.9238  -1.0634  -0.4930 H              1 <1>                0.0000
@<TRIPOS>BOND
    1    1    2 1     
    2    1   13 1     
    3    1   14 1     
    4    2    3 1     
    5    2   15 1     
    6    2   16 1     
    7    3    4 1     
    8    3    8 1     
    9    3   17 1     
   10    4    5 1     
   11    4    6 1     
   12    4    7 1     
   13    8    9 1     
   14    8   18 1     
   15    8   19 1     
   16    9   10 1     
   17    9   20 1     
   18    9   21 1     
   19   10   11 ar    
   20   10   12 ar    
@<TRIPOS>SUBSTRUCTURE
      1 ****           1
@<TRIPOS>SET
DONOR_HYDROGENS      STATIC     ATOMS    <user>   **** ""
5 13 14 5 6 7
ATOM$RED        STATIC     ATOMS    COLORGROUP SYSTEM
5 13 14 5 6 7
