#       Name:                HW5
#       Creating user name   gbret
#       Creation time:       Fri Sep  9 09:39:11 2016


#       File generated by GOLD software.
#

@<TRIPOS>MOLECULE
HW5
    56    58     1
SMALL
NO_CHARGES


@<TRIPOS>ATOM
      1 C1          -0.6072   4.2684  -4.8185 C.3            1 <1>                0.0000
      2 C2          -0.5867   2.7615  -4.8268 C.ar           1 <1>                0.0000
      3 C3          -0.5827   2.0608  -6.0196 C.ar           1 <1>                0.0000
      4 C4          -0.5631   0.6704  -5.9872 C.ar           1 <1>                0.0000
      5 N5          -0.5584  -0.0464  -7.1783 N.pl3          1 <1>                0.0000
      6 N6          -0.5486   0.0233  -4.8319 N.ar           1 <1>                0.0000
      7 C7          -0.5520   0.6654  -3.6793 C.ar           1 <1>                0.0000
      8 C8          -0.5345  -0.1175  -2.3917 C.3            1 <1>                0.0000
      9 C9          -1.7021  -1.1062  -2.3801 C.3            1 <1>                0.0000
     10 C10         -1.4676  -2.2251  -3.4175 C.3            1 <1>                0.0000
     11 N11         -1.9983  -3.4526  -2.7705 N.4            1 <1>                0.0000
     12 H12         -3.0043  -3.4827  -2.8424 H              1 <1>                0.0000
     13 H13         -1.5900  -4.2759  -3.1872 H              1 <1>                0.0000
     14 C14         -1.5824  -3.3254  -1.3500 C.3            1 <1>                0.0000
     15 C15         -1.7776  -1.8300  -1.0199 C.3            1 <1>                0.0000
     16 O16         -0.7357  -1.3724  -0.1556 O.3            1 <1>                0.0000
     17 C17         -1.0454  -1.4794   1.2353 C.3            1 <1>                0.0000
     18 C18          0.1345  -0.9638   2.0617 C.3            1 <1>                0.0000
     19 C19         -0.1971  -1.0784   3.5509 C.3            1 <1>                0.0000
     20 C20          0.9651  -0.5706   4.3648 C.2            1 <1>                0.0000
     21 C21          0.7779   0.3876   5.2616 C.2            1 <1>                0.0000
     22 C22          1.9178   0.8857   6.0600 C.ar           1 <1>                0.0000
     23 C23          3.1934   0.3531   5.8678 C.ar           1 <1>                0.0000
     24 C24          4.2541   0.8213   6.6154 C.ar           1 <1>                0.0000
     25 C25          4.0565   1.8172   7.5550 C.ar           1 <1>                0.0000
     26 C26          2.7931   2.3505   7.7518 C.ar           1 <1>                0.0000
     27 F27          2.6069   3.3226   8.6714 F              1 <1>                0.0000
     28 C28          1.7239   1.8937   7.0043 C.ar           1 <1>                0.0000
     29 C29         -0.5657   2.0454  -3.6375 C.ar           1 <1>                0.0000
     30 H30          0.4154   4.6457  -4.8262 H              1 <1>                0.0000
     31 H31         -1.1343   4.6295  -5.7016 H              1 <1>                0.0000
     32 H32         -1.1174   4.6199  -3.9217 H              1 <1>                0.0000
     33 H33         -0.5948   2.5862  -6.9631 H              1 <1>                0.0000
     34 H34         -0.5687   0.4232  -8.0269 H              1 <1>                0.0000
     35 H35         -0.5447  -1.0161  -7.1607 H              1 <1>                0.0000
     36 H36          0.4052  -0.6640  -2.3116 H              1 <1>                0.0000
     37 H37         -0.6296   0.5671  -1.5489 H              1 <1>                0.0000
     38 H38         -2.6385  -0.5876  -2.5854 H              1 <1>                0.0000
     39 H39         -2.0147  -2.0127  -4.3360 H              1 <1>                0.0000
     40 H40         -0.4031  -2.3345  -3.6247 H              1 <1>                0.0000
     41 H41         -2.2160  -3.9414  -0.7118 H              1 <1>                0.0000
     42 H42         -0.5359  -3.6070  -1.2336 H              1 <1>                0.0000
     43 H43         -2.7518  -1.6682  -0.5585 H              1 <1>                0.0000
     44 H44         -1.9316  -0.8847   1.4570 H              1 <1>                0.0000
     45 H45         -1.2361  -2.5229   1.4859 H              1 <1>                0.0000
     46 H46          1.0207  -1.5585   1.8400 H              1 <1>                0.0000
     47 H47          0.3252   0.0797   1.8111 H              1 <1>                0.0000
     48 H48         -1.0833  -0.4837   3.7726 H              1 <1>                0.0000
     49 H49         -0.3878  -2.1219   3.8015 H              1 <1>                0.0000
     50 H50          1.9505  -0.9872   4.2175 H              1 <1>                0.0000
     51 H51         -0.2076   0.8043   5.4089 H              1 <1>                0.0000
     52 H52          3.3500  -0.4247   5.1350 H              1 <1>                0.0000
     53 H53          5.2413   0.4091   6.4671 H              1 <1>                0.0000
     54 H54          4.8903   2.1801   8.1376 H              1 <1>                0.0000
     55 H55          0.7390   2.3095   7.1578 H              1 <1>                0.0000
     56 H56         -0.5681   2.5624  -2.6893 H              1 <1>                0.0000
@<TRIPOS>BOND
    1    1    2 1     
    2    1   30 1     
    3    1   31 1     
    4    1   32 1     
    5    2   29 ar    
    6    2    3 ar    
    7    3    4 ar    
    8    3   33 1     
    9    4    5 1     
   10    4    6 ar    
   11    5   34 1     
   12    5   35 1     
   13    6    7 ar    
   14    7    8 1     
   15    7   29 ar    
   16    8    9 1     
   17    8   36 1     
   18    8   37 1     
   19    9   15 1     
   20    9   10 1     
   21    9   38 1     
   22   10   11 1     
   23   10   39 1     
   24   10   40 1     
   25   11   12 1     
   26   11   13 1     
   27   11   14 1     
   28   14   15 1     
   29   14   41 1     
   30   14   42 1     
   31   15   16 1     
   32   15   43 1     
   33   16   17 1     
   34   17   18 1     
   35   17   44 1     
   36   17   45 1     
   37   18   19 1     
   38   18   46 1     
   39   18   47 1     
   40   19   20 1     
   41   19   48 1     
   42   19   49 1     
   43   20   21 2     
   44   20   50 1     
   45   21   22 1     
   46   21   51 1     
   47   22   28 ar    
   48   22   23 ar    
   49   23   24 ar    
   50   23   52 1     
   51   24   25 ar    
   52   24   53 1     
   53   25   26 ar    
   54   25   54 1     
   55   26   27 1     
   56   26   28 ar    
   57   28   55 1     
   58   29   56 1     
@<TRIPOS>SUBSTRUCTURE
      1 ****           1
@<TRIPOS>SET
DONOR_HYDROGENS      STATIC     ATOMS    <user>   **** ""
4 34 35 12 13
ATOM$RED        STATIC     ATOMS    COLORGROUP SYSTEM
4 34 35 12 13
