#       Name:                HXP
#       Creating user name   gbret
#       Creation time:       Fri Sep  9 09:40:34 2016


#       File generated by GOLD software.
#

@<TRIPOS>MOLECULE
HXP
    34    36     1
SMALL
NO_CHARGES


@<TRIPOS>ATOM
      1 O1          -0.2895   5.4043  -0.7758 O.3            1 <1>                0.0000
      2 C2          -0.2710   4.0454  -0.7833 C.ar           1 <1>                0.0000
      3 C3          -0.2673   3.3567  -1.9884 C.ar           1 <1>                0.0000
      4 C4          -0.2493   1.9762  -1.9935 C.ar           1 <1>                0.0000
      5 C5          -0.2347   1.2730  -0.8012 C.ar           1 <1>                0.0000
      6 C6          -0.2171  -0.2310  -0.8337 C.3            1 <1>                0.0000
      7 C7           1.1970  -0.7120  -1.1652 C.3            1 <1>                0.0000
      8 C8           1.1943  -2.2339  -1.3224 C.3            1 <1>                0.0000
      9 C9           2.5871  -2.7076  -1.6488 C.2            1 <1>                0.0000
     10 O10          3.4976  -1.9027  -1.7467 O.co2          1 <1>                0.0000
     11 O11          2.8036  -3.8959  -1.8151 O.co2          1 <1>                0.0000
     12 C12         -0.6332  -0.7937   0.4983 C.ar           1 <1>                0.0000
     13 C13         -1.0404  -2.1143   0.5784 C.ar           1 <1>                0.0000
     14 C14         -1.4249  -2.6529   1.7901 C.ar           1 <1>                0.0000
     15 C15         -1.4046  -1.8684   2.9349 C.ar           1 <1>                0.0000
     16 O16         -1.7818  -2.3967   4.1289 O.3            1 <1>                0.0000
     17 C17         -0.9989  -0.5466   2.8584 C.ar           1 <1>                0.0000
     18 C18         -0.6127  -0.0060   1.6379 C.ar           1 <1>                0.0000
     19 O19         -0.2206   1.2894   1.5837 O.3            1 <1>                0.0000
     20 C20         -0.2369   1.9558   0.4045 C.ar           1 <1>                0.0000
     21 C21         -0.2502   3.3453   0.4114 C.ar           1 <1>                0.0000
     22 H22          0.5885   5.8096  -0.7820 H              1 <1>                0.0000
     23 H23         -0.2788   3.9004  -2.9215 H              1 <1>                0.0000
     24 H24         -0.2469   1.4423  -2.9323 H              1 <1>                0.0000
     25 H25         -0.9055  -0.5820  -1.6025 H              1 <1>                0.0000
     26 H26          1.5288  -0.2512  -2.0956 H              1 <1>                0.0000
     27 H27          1.8746  -0.4312  -0.3588 H              1 <1>                0.0000
     28 H28          0.8625  -2.6947  -0.3919 H              1 <1>                0.0000
     29 H29          0.5167  -2.5146  -2.1287 H              1 <1>                0.0000
     30 H30         -1.0577  -2.7262  -0.3114 H              1 <1>                0.0000
     31 H31         -1.7417  -3.6838   1.8470 H              1 <1>                0.0000
     32 H32         -1.0569  -2.7964   4.6287 H              1 <1>                0.0000
     33 H33         -0.9827   0.0650   3.7484 H              1 <1>                0.0000
     34 H34         -0.2482   3.8800   1.3497 H              1 <1>                0.0000
@<TRIPOS>BOND
    1    1    2 1     
    2    1   22 1     
    3    2   21 ar    
    4    2    3 ar    
    5    3    4 ar    
    6    3   23 1     
    7    4    5 ar    
    8    4   24 1     
    9    5   20 ar    
   10    5    6 1     
   11    6    7 1     
   12    6   12 1     
   13    6   25 1     
   14    7    8 1     
   15    7   26 1     
   16    7   27 1     
   17    8    9 1     
   18    8   28 1     
   19    8   29 1     
   20    9   10 ar    
   21    9   11 ar    
   22   12   18 ar    
   23   12   13 ar    
   24   13   14 ar    
   25   13   30 1     
   26   14   15 ar    
   27   14   31 1     
   28   15   16 1     
   29   15   17 ar    
   30   16   32 1     
   31   17   18 ar    
   32   17   33 1     
   33   18   19 1     
   34   19   20 1     
   35   20   21 ar    
   36   21   34 1     
@<TRIPOS>SUBSTRUCTURE
      1 ****           1
@<TRIPOS>SET
DONOR_HYDROGENS      STATIC     ATOMS    <user>   **** ""
2 22 32
ATOM$RED        STATIC     ATOMS    COLORGROUP SYSTEM
2 22 32
