#       Name:                I4P
#       Creating user name   gbret
#       Creation time:       Fri Sep  9 09:47:18 2016


#       File generated by GOLD software.
#

@<TRIPOS>MOLECULE
I4P
    36    36     1
SMALL
NO_CHARGES


@<TRIPOS>ATOM
      1 O1           0.5616   2.6492  -1.0434 O.3            1 <1>                0.0000
      2 C2           0.5810   1.2203  -1.0513 C.3            1 <1>                0.0000
      3 C3           1.3210   0.7135   0.1882 C.3            1 <1>                0.0000
      4 O4           0.6521   1.1743   1.3639 O.3            1 <1>                0.0000
      5 P5           1.3618   2.1068   2.4680 P.3            1 <1>                0.0000
      6 O6           1.7115   3.4952   1.8321 O.co2          1 <1>                0.0000
      7 O7           0.3888   2.3167   3.6778 O.co2          1 <1>                0.0000
      8 O8           2.6758   1.4158   2.9685 O.co2          1 <1>                0.0000
      9 C9           1.3417  -0.8163   0.1798 C.3            1 <1>                0.0000
     10 O10          2.0329  -1.2897   1.3375 O.3            1 <1>                0.0000
     11 P11          3.3582  -2.2002   1.2564 P.3            1 <1>                0.0000
     12 O12          4.5198  -1.3748   0.6053 O.co2          1 <1>                0.0000
     13 O13          3.7772  -2.6425   2.6997 O.co2          1 <1>                0.0000
     14 O14          3.0673  -3.4694   0.3851 O.co2          1 <1>                0.0000
     15 C15         -0.0937  -1.3459   0.1907 C.3            1 <1>                0.0000
     16 O16         -0.7625  -0.8851   1.3664 O.3            1 <1>                0.0000
     17 C17         -0.8337  -0.8391  -1.0488 C.3            1 <1>                0.0000
     18 O18         -2.1743  -1.3337  -1.0387 O.3            1 <1>                0.0000
     19 P19         -2.7745  -2.2643  -2.2074 P.3            1 <1>                0.0000
     20 O20         -2.0143  -3.6341  -2.2264 O.co2          1 <1>                0.0000
     21 O21         -4.2981  -2.5162  -1.9438 O.co2          1 <1>                0.0000
     22 O22         -2.5949  -1.5482  -3.5892 O.co2          1 <1>                0.0000
     23 C23         -0.8544   0.6908  -1.0404 C.3            1 <1>                0.0000
     24 O24         -1.5233   1.1516   0.1353 O.3            1 <1>                0.0000
     25 P25         -2.8498   2.0628   0.0892 P.3            1 <1>                0.0000
     26 O26         -4.0237   1.2443  -0.5484 O.co2          1 <1>                0.0000
     27 O27         -3.2411   2.4894   1.5450 O.co2          1 <1>                0.0000
     28 O28         -2.5755   3.3412  -0.7738 O.co2          1 <1>                0.0000
     29 H29          1.4395   3.0545  -1.0496 H              1 <1>                0.0000
     30 H30          1.0912   0.8688  -1.9481 H              1 <1>                0.0000
     31 H31          2.3436   1.0908   0.1805 H              1 <1>                0.0000
     32 H32          1.8519  -1.1679  -0.7170 H              1 <1>                0.0000
     33 H33         -0.0789  -2.4358   0.1847 H              1 <1>                0.0000
     34 H34         -1.6795  -1.1833   1.4397 H              1 <1>                0.0000
     35 H35         -0.3235  -1.1906  -1.9456 H              1 <1>                0.0000
     36 H36         -1.3816   1.0518  -1.9235 H              1 <1>                0.0000
@<TRIPOS>BOND
    1    1    2 1     
    2    1   29 1     
    3    2   23 1     
    4    2    3 1     
    5    2   30 1     
    6    3    4 1     
    7    3    9 1     
    8    3   31 1     
    9    4    5 1     
   10    5    6 ar    
   11    5    7 ar    
   12    5    8 ar    
   13    9   10 1     
   14    9   15 1     
   15    9   32 1     
   16   10   11 1     
   17   11   12 ar    
   18   11   13 ar    
   19   11   14 ar    
   20   15   16 1     
   21   15   17 1     
   22   15   33 1     
   23   16   34 1     
   24   17   18 1     
   25   17   23 1     
   26   17   35 1     
   27   18   19 1     
   28   19   20 ar    
   29   19   21 ar    
   30   19   22 ar    
   31   23   24 1     
   32   23   36 1     
   33   24   25 1     
   34   25   26 ar    
   35   25   27 ar    
   36   25   28 ar    
@<TRIPOS>SUBSTRUCTURE
      1 ****           1
@<TRIPOS>SET
DONOR_HYDROGENS      STATIC     ATOMS    <user>   **** ""
2 29 34
ATOM$RED        STATIC     ATOMS    COLORGROUP SYSTEM
2 29 34
