#       Name:                I85
#       Creating user name   gbret
#       Creation time:       Fri Sep  9 09:49:15 2016


#       File generated by GOLD software.
#

@<TRIPOS>MOLECULE
I85
    57    61     1
SMALL
NO_CHARGES


@<TRIPOS>ATOM
      1 F1          -9.3573   0.9205  -4.5814 F              1 <1>                0.0000
      2 C2          -9.0851  -0.3949  -4.1906 C.3            1 <1>                0.0000
      3 F3          -9.6149  -0.6219  -2.9159 F              1 <1>                0.0000
      4 F4          -9.6672  -1.2822  -5.1023 F              1 <1>                0.0000
      5 C5          -7.5940  -0.6118  -4.1608 C.ar           1 <1>                0.0000
      6 C6          -6.9376  -1.0523  -5.2966 C.ar           1 <1>                0.0000
      7 C7          -5.5691  -1.2543  -5.2776 C.ar           1 <1>                0.0000
      8 C8          -4.8496  -1.0169  -4.1246 C.ar           1 <1>                0.0000
      9 C9          -5.5054  -0.5720  -2.9756 C.ar           1 <1>                0.0000
     10 C10         -6.8859  -0.3652  -3.0031 C.ar           1 <1>                0.0000
     11 C11         -4.7410  -0.3161  -1.7367 C.2            1 <1>                0.0000
     12 O12         -5.3148   0.0713  -0.7376 O.2            1 <1>                0.0000
     13 N13         -3.4078  -0.5124  -1.7147 N.am           1 <1>                0.0000
     14 C14         -2.6718  -0.1710  -0.5817 C.ar           1 <1>                0.0000
     15 C15         -1.2885  -0.2771  -0.6045 C.ar           1 <1>                0.0000
     16 C16         -0.5650   0.0691   0.5398 C.ar           1 <1>                0.0000
     17 C17         -1.2753   0.5104   1.6649 C.ar           1 <1>                0.0000
     18 C18         -2.6493   0.5866   1.6035 C.ar           1 <1>                0.0000
     19 N19         -3.3002   0.2564   0.5032 N.ar           1 <1>                0.0000
     20 C20          0.9099  -0.0279   0.5634 C.2            1 <1>                0.0000
     21 C21          1.6976  -0.4376  -0.4715 C.2            1 <1>                0.0000
     22 C22          3.0219  -0.3775  -0.0192 C.2            1 <1>                0.0000
     23 C23          2.9933   0.0724   1.2971 C.2            1 <1>                0.0000
     24 N24          1.7202   0.2863   1.6335 N.pl3          1 <1>                0.0000
     25 H25          1.4131   0.6068   2.4959 H              1 <1>                0.0000
     26 C26          4.2651   0.2428   2.0862 C.3            1 <1>                0.0000
     27 C27          4.7905   1.6695   1.9101 C.3            1 <1>                0.0000
     28 C28          6.0407   1.8524   2.7755 C.3            1 <1>                0.0000
     29 C29          5.6974   1.5346   4.2324 C.3            1 <1>                0.0000
     30 N30          5.2281   0.1477   4.3372 N.4            1 <1>                0.0000
     31 H31          5.9347  -0.4738   3.9734 H              1 <1>                0.0000
     32 H32          5.0524  -0.0745   5.3057 H              1 <1>                0.0000
     33 C33          3.9891  -0.0185   3.5677 C.3            1 <1>                0.0000
     34 C34          5.3041  -0.7531   1.5718 C.3            1 <1>                0.0000
     35 N35          5.3908  -0.7821   0.1181 N.am           1 <1>                0.0000
     36 C36          4.3007  -0.6913  -0.6801 C.2            1 <1>                0.0000
     37 O37          4.3736  -0.8597  -1.8823 O.2            1 <1>                0.0000
     38 H38         -7.4962  -1.2396  -6.2017 H              1 <1>                0.0000
     39 H39         -5.0630  -1.5989  -6.1673 H              1 <1>                0.0000
     40 H40         -3.7813  -1.1754  -4.1110 H              1 <1>                0.0000
     41 H41         -7.3993  -0.0211  -2.1175 H              1 <1>                0.0000
     42 H42         -2.9605  -0.8913  -2.4876 H              1 <1>                0.0000
     43 H43         -0.7792  -0.6221  -1.4922 H              1 <1>                0.0000
     44 H44         -0.7520   0.7868   2.5683 H              1 <1>                0.0000
     45 H45         -3.2023   0.9259   2.4670 H              1 <1>                0.0000
     46 H46          1.3646  -0.7489  -1.4506 H              1 <1>                0.0000
     47 H47          5.0437   1.8381   0.8635 H              1 <1>                0.0000
     48 H48          4.0250   2.3807   2.2205 H              1 <1>                0.0000
     49 H49          6.8240   1.1775   2.4306 H              1 <1>                0.0000
     50 H50          6.3880   2.8828   2.6999 H              1 <1>                0.0000
     51 H51          6.5852   1.6650   4.8512 H              1 <1>                0.0000
     52 H52          4.9137   2.2098   4.5762 H              1 <1>                0.0000
     53 H53          3.2410   0.6879   3.9274 H              1 <1>                0.0000
     54 H54          3.6174  -1.0354   3.6936 H              1 <1>                0.0000
     55 H55          6.2796  -0.4834   1.9765 H              1 <1>                0.0000
     56 H56          5.0419  -1.7494   1.9280 H              1 <1>                0.0000
     57 H57          6.2642  -0.8697  -0.2947 H              1 <1>                0.0000
@<TRIPOS>BOND
    1    1    2 1     
    2    2    3 1     
    3    2    4 1     
    4    2    5 1     
    5    5   10 ar    
    6    5    6 ar    
    7    6    7 ar    
    8    6   38 1     
    9    7    8 ar    
   10    7   39 1     
   11    8    9 ar    
   12    8   40 1     
   13    9   10 ar    
   14    9   11 1     
   15   10   41 1     
   16   11   12 2     
   17   11   13 am    
   18   13   14 1     
   19   13   42 1     
   20   14   19 ar    
   21   14   15 ar    
   22   15   16 ar    
   23   15   43 1     
   24   16   17 ar    
   25   16   20 1     
   26   17   18 ar    
   27   17   44 1     
   28   18   19 ar    
   29   18   45 1     
   30   20   24 1     
   31   20   21 2     
   32   21   22 1     
   33   21   46 1     
   34   22   36 1     
   35   22   23 2     
   36   23   24 1     
   37   23   26 1     
   38   24   25 1     
   39   26   33 1     
   40   26   27 1     
   41   26   34 1     
   42   27   28 1     
   43   27   47 1     
   44   27   48 1     
   45   28   29 1     
   46   28   49 1     
   47   28   50 1     
   48   29   30 1     
   49   29   51 1     
   50   29   52 1     
   51   30   31 1     
   52   30   32 1     
   53   30   33 1     
   54   33   53 1     
   55   33   54 1     
   56   34   35 1     
   57   34   55 1     
   58   34   56 1     
   59   35   36 am    
   60   35   57 1     
   61   36   37 2     
@<TRIPOS>SUBSTRUCTURE
      1 ****           1
@<TRIPOS>SET
DONOR_HYDROGENS      STATIC     ATOMS    <user>   **** ""
5 42 25 31 32 57
ATOM$RED        STATIC     ATOMS    COLORGROUP SYSTEM
5 42 25 31 32 57
