#       Name:                IDC
#       Creating user name   gbret
#       Creation time:       Fri Sep  9 09:54:01 2016


#       File generated by GOLD software.
#

@<TRIPOS>MOLECULE
IDC
    47    49     1
SMALL
NO_CHARGES


@<TRIPOS>ATOM
      1 O1           3.2477   1.5262   2.4161 O.3            1 <1>                0.0000
      2 C2           3.2671   0.0973   2.4082 C.3            1 <1>                0.0000
      3 C3           1.8317  -0.4322   2.4191 C.3            1 <1>                0.0000
      4 O4           1.1763  -0.0576   1.2057 O.3            1 <1>                0.0000
      5 C5          -0.1856  -0.4824   1.1230 C.3            1 <1>                0.0000
      6 O6          -0.7502  -0.0352  -0.1112 O.3            1 <1>                0.0000
      7 C7          -0.8441   1.3861  -0.2262 C.3            1 <1>                0.0000
      8 C8           0.4405   1.9333  -0.8552 C.3            1 <1>                0.0000
      9 O9           1.5222   1.7901   0.0675 O.3            1 <1>                0.0000
     10 C10          0.7515   1.1469  -2.1351 C.3            1 <1>                0.0000
     11 O11          1.1734  -0.1760  -1.7975 O.3            1 <1>                0.0000
     12 C12         -0.5071   1.0835  -2.9677 C.2            1 <1>                0.0000
     13 N13         -0.6068   0.7689  -4.2261 N.2            1 <1>                0.0000
     14 C14         -1.8963   0.8306  -4.5961 C.2            1 <1>                0.0000
     15 C15         -2.6229   1.1981  -3.5212 C.2            1 <1>                0.0000
     16 N16         -1.7447   1.3574  -2.4909 N.pl3          1 <1>                0.0000
     17 C17         -2.0418   1.7488  -1.1111 C.3            1 <1>                0.0000
     18 C18         -3.2849   1.0026  -0.6226 C.3            1 <1>                0.0000
     19 O19         -4.4200   1.4180  -1.3848 O.3            1 <1>                0.0000
     20 C20         -0.2468  -2.0107   1.1883 C.3            1 <1>                0.0000
     21 O21          0.4470  -2.5648   0.0687 O.3            1 <1>                0.0000
     22 C22          0.4141  -2.4854   2.4861 C.3            1 <1>                0.0000
     23 O23          0.4270  -3.9139   2.5212 O.3            1 <1>                0.0000
     24 C24          1.8515  -1.9585   2.5365 C.3            1 <1>                0.0000
     25 O25          2.6009  -2.5112   1.4525 O.3            1 <1>                0.0000
     26 H26          4.1256   1.9315   2.4099 H              1 <1>                0.0000
     27 H27          3.7773  -0.2542   1.5114 H              1 <1>                0.0000
     28 H28          3.7943  -0.2637   3.2913 H              1 <1>                0.0000
     29 H29          1.2946  -0.0093   3.2681 H              1 <1>                0.0000
     30 H30         -0.7493  -0.0600   1.9548 H              1 <1>                0.0000
     31 H31         -0.9784   1.8225   0.7636 H              1 <1>                0.0000
     32 H32          0.3065   2.9873  -1.0983 H              1 <1>                0.0000
     33 H33          2.3692   2.1170  -0.2655 H              1 <1>                0.0000
     34 H34          1.5385   1.6521  -2.6950 H              1 <1>                0.0000
     35 H35          1.3863  -0.7281  -2.5623 H              1 <1>                0.0000
     36 H36         -2.2837   0.6222  -5.5825 H              1 <1>                0.0000
     37 H37         -3.6930   1.3388  -3.4838 H              1 <1>                0.0000
     38 H38         -2.2171   2.8237  -1.0660 H              1 <1>                0.0000
     39 H39         -3.1368  -0.0702  -0.7466 H              1 <1>                0.0000
     40 H40         -3.4528   1.2268   0.4308 H              1 <1>                0.0000
     41 H41         -5.2457   0.9846  -1.1289 H              1 <1>                0.0000
     42 H42         -1.2874  -2.3348   1.1687 H              1 <1>                0.0000
     43 H43          0.0845  -2.3015  -0.7883 H              1 <1>                0.0000
     44 H44         -0.1454  -2.1047   3.3406 H              1 <1>                0.0000
     45 H45         -0.4516  -4.3162   2.4855 H              1 <1>                0.0000
     46 H46          2.3116  -2.2452   3.4821 H              1 <1>                0.0000
     47 H47          2.6510  -3.4768   1.4610 H              1 <1>                0.0000
@<TRIPOS>BOND
    1    1    2 1     
    2    1   26 1     
    3    2    3 1     
    4    2   27 1     
    5    2   28 1     
    6    3   24 1     
    7    3    4 1     
    8    3   29 1     
    9    4    5 1     
   10    5    6 1     
   11    5   20 1     
   12    5   30 1     
   13    6    7 1     
   14    7   17 1     
   15    7    8 1     
   16    7   31 1     
   17    8    9 1     
   18    8   10 1     
   19    8   32 1     
   20    9   33 1     
   21   10   11 1     
   22   10   12 1     
   23   10   34 1     
   24   11   35 1     
   25   12   16 1     
   26   12   13 2     
   27   13   14 1     
   28   14   15 2     
   29   14   36 1     
   30   15   16 1     
   31   15   37 1     
   32   16   17 1     
   33   17   18 1     
   34   17   38 1     
   35   18   19 1     
   36   18   39 1     
   37   18   40 1     
   38   19   41 1     
   39   20   21 1     
   40   20   22 1     
   41   20   42 1     
   42   21   43 1     
   43   22   23 1     
   44   22   24 1     
   45   22   44 1     
   46   23   45 1     
   47   24   25 1     
   48   24   46 1     
   49   25   47 1     
@<TRIPOS>SUBSTRUCTURE
      1 ****           1
@<TRIPOS>SET
DONOR_HYDROGENS      STATIC     ATOMS    <user>   **** ""
7 26 33 35 41 43 45 47
ATOM$RED        STATIC     ATOMS    COLORGROUP SYSTEM
7 26 33 35 41 43 45 47
