#       Name:                IGA
#       Creating user name   gbret
#       Creation time:       Fri Sep  9 09:57:01 2016


#       File generated by GOLD software.
#

@<TRIPOS>MOLECULE
IGA
    16    17     1
SMALL
NO_CHARGES


@<TRIPOS>ATOM
      1 N1          -0.8558   2.2889   0.0176 N.pl3          1 <1>                0.0000
      2 C2          -0.8371   0.9130   0.0100 C.2            1 <1>                0.0000
      3 N3          -1.9748   0.2271   0.0116 N.2            1 <1>                0.0000
      4 C4          -1.9832  -1.1035   0.0040 C.2            1 <1>                0.0000
      5 O5          -3.0528  -1.6899   0.0058 O.2            1 <1>                0.0000
      6 N6          -0.8431  -1.8206  -0.0062 N.am           1 <1>                0.0000
      7 H7          -0.8781  -2.7900  -0.0123 H              1 <1>                0.0000
      8 C8           0.3739  -1.1727  -0.0084 C.2            1 <1>                0.0000
      9 N9           1.6463  -1.5799  -0.0166 N.2            1 <1>                0.0000
     10 C10          2.4436  -0.5428  -0.0139 C.2            1 <1>                0.0000
     11 N11          1.7156   0.5923  -0.0037 N.pl3          1 <1>                0.0000
     12 H12          2.0607   1.4988   0.0003 H              1 <1>                0.0000
     13 C13          0.3866   0.2198  -0.0054 C.2            1 <1>                0.0000
     14 H14         -0.0224   2.7852   0.0123 H              1 <1>                0.0000
     15 H15         -1.7023   2.7624   0.0241 H              1 <1>                0.0000
     16 H16          3.5226  -0.5888  -0.0187 H              1 <1>                0.0000
@<TRIPOS>BOND
    1    1    2 1     
    2    1   14 1     
    3    1   15 1     
    4    2   13 1     
    5    2    3 2     
    6    3    4 1     
    7    4    5 2     
    8    4    6 am    
    9    6    7 1     
   10    6    8 1     
   11    8   13 2     
   12    8    9 1     
   13    9   10 2     
   14   10   11 1     
   15   10   16 1     
   16   11   12 1     
   17   11   13 1     
@<TRIPOS>SUBSTRUCTURE
      1 ****           1
@<TRIPOS>SET
DONOR_HYDROGENS      STATIC     ATOMS    <user>   **** ""
4 14 15 7 12
ATOM$RED        STATIC     ATOMS    COLORGROUP SYSTEM
4 14 15 7 12
