#       Name:                ILD
#       Creating user name   gbret
#       Creation time:       Fri Sep  9 10:01:33 2016


#       File generated by GOLD software.
#

@<TRIPOS>MOLECULE
ILD
    79    82     1
SMALL
NO_CHARGES


@<TRIPOS>ATOM
      1 C1          -3.7260   2.5689   1.8028 C.3            1 <1>                0.0000
      2 C2          -3.4013   1.0912   1.5752 C.3            1 <1>                0.0000
      3 C3          -2.6078   0.9376   0.2761 C.3            1 <1>                0.0000
      4 C4          -1.2387   1.6022   0.4331 C.3            1 <1>                0.0000
      5 O5          -0.3985   0.8161   1.2930 O.3            1 <1>                0.0000
      6 C6           0.9553   0.8597   0.8273 C.3            1 <1>                0.0000
      7 C7           1.4448  -0.5573   0.5213 C.3            1 <1>                0.0000
      8 C8           2.8286  -0.4897  -0.1280 C.3            1 <1>                0.0000
      9 C9           0.9786   1.7113  -0.4602 C.3            1 <1>                0.0000
     10 C10         -0.5004   1.6410  -0.9286 C.3            1 <1>                0.0000
     11 C11         -0.7635   0.3676  -1.7350 C.3            1 <1>                0.0000
     12 C12          1.8499   1.4992   1.8911 C.3            1 <1>                0.0000
     13 C13          1.9630   0.5716   3.1271 C.3            1 <1>                0.0000
     14 C14          3.3192   1.0382   3.7227 C.3            1 <1>                0.0000
     15 C15          4.1279   1.3941   2.4568 C.3            1 <1>                0.0000
     16 C16          5.0472   0.2294   2.0835 C.3            1 <1>                0.0000
     17 C17          5.9277   0.6338   0.8995 C.3            1 <1>                0.0000
     18 O18          3.1926   1.6332   1.3986 O.3            1 <1>                0.0000
     19 C19          4.9611   2.6522   2.7097 C.3            1 <1>                0.0000
     20 C20          4.0396   3.7971   3.1351 C.3            1 <1>                0.0000
     21 O21          5.9103   2.3944   3.7464 O.3            1 <1>                0.0000
     22 C22         -2.4234  -0.5265  -0.0298 C.2            1 <1>                0.0000
     23 O23         -1.5346  -1.1509   0.5085 O.2            1 <1>                0.0000
     24 N24         -3.2466  -1.1417  -0.9018 N.am           1 <1>                0.0000
     25 C25         -3.1134  -2.5295  -1.3706 C.3            1 <1>                0.0000
     26 C26         -3.2251  -3.5060  -0.1981 C.3            1 <1>                0.0000
     27 C27         -4.3008  -2.7057  -2.3368 C.3            1 <1>                0.0000
     28 O28         -4.9712  -1.4124  -2.3112 O.3            1 <1>                0.0000
     29 C29         -4.3232  -0.5906  -1.4787 C.2            1 <1>                0.0000
     30 O30         -4.6734   0.5538  -1.2714 O.2            1 <1>                0.0000
     31 C31         -3.8091  -3.0185  -3.7266 C.ar           1 <1>                0.0000
     32 C32         -3.3508  -2.0013  -4.5428 C.ar           1 <1>                0.0000
     33 C33         -2.8998  -2.2881  -5.8177 C.ar           1 <1>                0.0000
     34 C34         -2.9066  -3.5922  -6.2761 C.ar           1 <1>                0.0000
     35 C35         -3.3640  -4.6095  -5.4596 C.ar           1 <1>                0.0000
     36 C36         -3.8110  -4.3232  -4.1832 C.ar           1 <1>                0.0000
     37 H37         -2.7990   3.1378   1.8738 H              1 <1>                0.0000
     38 H38         -4.3191   2.9433   0.9685 H              1 <1>                0.0000
     39 H39         -4.2912   2.6783   2.7284 H              1 <1>                0.0000
     40 H40         -2.8082   0.7168   2.4096 H              1 <1>                0.0000
     41 H41         -4.3283   0.5222   1.5042 H              1 <1>                0.0000
     42 H42         -3.1514   1.4136  -0.5401 H              1 <1>                0.0000
     43 H43         -1.3518   2.6107   0.8310 H              1 <1>                0.0000
     44 H44          1.5056  -1.1286   1.4475 H              1 <1>                0.0000
     45 H45          0.7470  -1.0434  -0.1605 H              1 <1>                0.0000
     46 H46          3.1451  -1.4928  -0.4139 H              1 <1>                0.0000
     47 H47          2.7837   0.1435  -1.0140 H              1 <1>                0.0000
     48 H48          3.5428  -0.0717   0.5815 H              1 <1>                0.0000
     49 H49          1.2675   2.7391  -0.2403 H              1 <1>                0.0000
     50 H50          1.6426   1.2714  -1.2043 H              1 <1>                0.0000
     51 H51         -0.7744   2.5286  -1.4990 H              1 <1>                0.0000
     52 H52         -0.5420  -0.5044  -1.1197 H              1 <1>                0.0000
     53 H53         -1.8095   0.3406  -2.0404 H              1 <1>                0.0000
     54 H54         -0.1264   0.3595  -2.6194 H              1 <1>                0.0000
     55 H55          1.4545   2.4725   2.1817 H              1 <1>                0.0000
     56 H56          1.1455   0.7474   3.8264 H              1 <1>                0.0000
     57 H57          2.0043  -0.4762   2.8294 H              1 <1>                0.0000
     58 H58          3.1837   1.9151   4.3558 H              1 <1>                0.0000
     59 H59          3.7989   0.2301   4.2750 H              1 <1>                0.0000
     60 H60          5.6780  -0.0232   2.9359 H              1 <1>                0.0000
     61 H61          4.4440  -0.6360   1.8089 H              1 <1>                0.0000
     62 H62          6.5131  -0.2254   0.5718 H              1 <1>                0.0000
     63 H63          5.2979   0.9784   0.0793 H              1 <1>                0.0000
     64 H64          6.5995   1.4364   1.2037 H              1 <1>                0.0000
     65 H65          5.4871   2.9294   1.7962 H              1 <1>                0.0000
     66 H66          3.5987   3.5674   4.1051 H              1 <1>                0.0000
     67 H67          4.6158   4.7196   3.2072 H              1 <1>                0.0000
     68 H68          3.2480   3.9201   2.3960 H              1 <1>                0.0000
     69 H69          5.5119   2.1415   4.5904 H              1 <1>                0.0000
     70 H70         -2.1672  -2.6678  -1.8939 H              1 <1>                0.0000
     71 H71         -4.1857  -3.3691   0.2985 H              1 <1>                0.0000
     72 H72         -3.1499  -4.5285  -0.5683 H              1 <1>                0.0000
     73 H73         -2.4192  -3.3162   0.5109 H              1 <1>                0.0000
     74 H74         -4.9694  -3.4898  -1.9816 H              1 <1>                0.0000
     75 H75         -3.3455  -0.9824  -4.1847 H              1 <1>                0.0000
     76 H76         -2.5424  -1.4933  -6.4556 H              1 <1>                0.0000
     77 H77         -2.5549  -3.8163  -7.2724 H              1 <1>                0.0000
     78 H78         -3.3696  -5.6284  -5.8178 H              1 <1>                0.0000
     79 H79         -4.1684  -5.1180  -3.5452 H              1 <1>                0.0000
@<TRIPOS>BOND
    1    1    2 1     
    2    1   37 1     
    3    1   38 1     
    4    1   39 1     
    5    2    3 1     
    6    2   40 1     
    7    2   41 1     
    8    3    4 1     
    9    3   22 1     
   10    3   42 1     
   11    4   10 1     
   12    4    5 1     
   13    4   43 1     
   14    5    6 1     
   15    6    7 1     
   16    6    9 1     
   17    6   12 1     
   18    7    8 1     
   19    7   44 1     
   20    7   45 1     
   21    8   46 1     
   22    8   47 1     
   23    8   48 1     
   24    9   10 1     
   25    9   49 1     
   26    9   50 1     
   27   10   11 1     
   28   10   51 1     
   29   11   52 1     
   30   11   53 1     
   31   11   54 1     
   32   12   18 1     
   33   12   13 1     
   34   12   55 1     
   35   13   14 1     
   36   13   56 1     
   37   13   57 1     
   38   14   15 1     
   39   14   58 1     
   40   14   59 1     
   41   15   16 1     
   42   15   18 1     
   43   15   19 1     
   44   16   17 1     
   45   16   60 1     
   46   16   61 1     
   47   17   62 1     
   48   17   63 1     
   49   17   64 1     
   50   19   20 1     
   51   19   21 1     
   52   19   65 1     
   53   20   66 1     
   54   20   67 1     
   55   20   68 1     
   56   21   69 1     
   57   22   23 2     
   58   22   24 am    
   59   24   29 am    
   60   24   25 1     
   61   25   26 1     
   62   25   27 1     
   63   25   70 1     
   64   26   71 1     
   65   26   72 1     
   66   26   73 1     
   67   27   28 1     
   68   27   31 1     
   69   27   74 1     
   70   28   29 1     
   71   29   30 2     
   72   31   36 ar    
   73   31   32 ar    
   74   32   33 ar    
   75   32   75 1     
   76   33   34 ar    
   77   33   76 1     
   78   34   35 ar    
   79   34   77 1     
   80   35   36 ar    
   81   35   78 1     
   82   36   79 1     
@<TRIPOS>SUBSTRUCTURE
      1 ****           1
@<TRIPOS>SET
DONOR_HYDROGENS      STATIC     ATOMS    <user>   **** ""
1 69
ATOM$RED        STATIC     ATOMS    COLORGROUP SYSTEM
1 69
