#       Name:                ILG
#       Creating user name   gbret
#       Creation time:       Fri Sep  9 10:01:46 2016


#       File generated by GOLD software.
#

@<TRIPOS>MOLECULE
ILG
    18    17     1
SMALL
NO_CHARGES


@<TRIPOS>ATOM
      1 N1           1.6289  -0.1394  -0.7699 N.4            1 <1>                0.0000
      2 H2           1.6426  -1.1483  -0.7755 H              1 <1>                0.0000
      3 H3           2.5755   0.2099  -0.7771 H              1 <1>                0.0000
      4 H4           1.1409   0.1949  -1.5874 H              1 <1>                0.0000
      5 C5           0.9413   0.3344   0.4387 C.3            1 <1>                0.0000
      6 C6          -0.4941  -0.1952   0.4495 C.3            1 <1>                0.0000
      7 C7          -1.2702   0.4108  -0.7215 C.3            1 <1>                0.0000
      8 C8          -2.6840  -0.1108  -0.7108 C.2            1 <1>                0.0000
      9 O9          -3.6123   0.6614  -0.6978 O.2            1 <1>                0.0000
     10 C10          1.6702  -0.1648   1.6596 C.2            1 <1>                0.0000
     11 O11          1.3748   0.2618   2.7628 O.co2          1 <1>                0.0000
     12 O12          2.5552  -0.9954   1.5441 O.co2          1 <1>                0.0000
     13 H13          0.9265   1.4243   0.4447 H              1 <1>                0.0000
     14 H14         -0.4815  -1.2809   0.3540 H              1 <1>                0.0000
     15 H15         -0.9764   0.0815   1.3871 H              1 <1>                0.0000
     16 H16         -1.2827   1.4966  -0.6260 H              1 <1>                0.0000
     17 H17         -0.7879   0.1341  -1.6590 H              1 <1>                0.0000
     18 H18         -2.8669  -1.1752  -0.7148 H              1 <1>                0.0000
@<TRIPOS>BOND
    1    1    2 1     
    2    1    3 1     
    3    1    4 1     
    4    1    5 1     
    5    5    6 1     
    6    5   10 1     
    7    5   13 1     
    8    6    7 1     
    9    6   14 1     
   10    6   15 1     
   11    7    8 1     
   12    7   16 1     
   13    7   17 1     
   14    8    9 2     
   15    8   18 1     
   16   10   11 ar    
   17   10   12 ar    
@<TRIPOS>SUBSTRUCTURE
      1 ****           1
@<TRIPOS>SET
DONOR_HYDROGENS      STATIC     ATOMS    <user>   **** ""
3 2 3 4
ATOM$RED        STATIC     ATOMS    COLORGROUP SYSTEM
3 2 3 4
