#       Name:                IMD
#       Creating user name   gbret
#       Creation time:       Fri Sep  9 10:03:20 2016


#       File generated by GOLD software.
#

@<TRIPOS>MOLECULE
IMD
     9     9     1
SMALL
NO_CHARGES


@<TRIPOS>ATOM
      1 C1          -1.1066   0.5260   0.0130 C.2            1 <1>                0.0000
      2 C2           0.1682   0.9600   0.0032 C.2            1 <1>                0.0000
      3 N3           0.9653  -0.1528  -0.0104 N.pl3          1 <1>                0.0000
      4 H4           1.9351  -0.1659  -0.0198 H              1 <1>                0.0000
      5 C5           0.1492  -1.2287  -0.0084 C.2            1 <1>                0.0000
      6 N6          -1.0884  -0.8152   0.0056 N.2            1 <1>                0.0000
      7 H7          -1.9889   1.1486   0.0288 H              1 <1>                0.0000
      8 H8           0.4982   1.9883   0.0052 H              1 <1>                0.0000
      9 H9           0.4680  -2.2606  -0.0170 H              1 <1>                0.0000
@<TRIPOS>BOND
    1    1    6 1     
    2    1    2 2     
    3    1    7 1     
    4    2    3 1     
    5    2    8 1     
    6    3    4 1     
    7    3    5 1     
    8    5    6 2     
    9    5    9 1     
@<TRIPOS>SUBSTRUCTURE
      1 ****           1
@<TRIPOS>SET
DONOR_HYDROGENS      STATIC     ATOMS    <user>   **** ""
1 4
ATOM$RED        STATIC     ATOMS    COLORGROUP SYSTEM
1 4
