#       Name:                IPX
#       Creating user name   gbret
#       Creation time:       Fri Sep  9 10:10:48 2016


#       File generated by GOLD software.
#

@<TRIPOS>MOLECULE
IPX
    48    51     1
SMALL
NO_CHARGES


@<TRIPOS>ATOM
      1 O1           2.7480   2.3936   1.9089 O.co2          1 <1>                0.0000
      2 C2           3.5827   2.6530   1.0589 C.2            1 <1>                0.0000
      3 O3           4.4282   3.5046   1.2746 O.co2          1 <1>                0.0000
      4 C4           3.5732   1.9166  -0.2560 C.3            1 <1>                0.0000
      5 C5           2.4244   0.9062  -0.2663 C.3            1 <1>                0.0000
      6 C6           2.4148   0.1586  -1.6012 C.3            1 <1>                0.0000
      7 C7           1.3486  -0.9381  -1.5638 C.3            1 <1>                0.0000
      8 C8          -0.0628  -0.3133  -1.5675 C.3            1 <1>                0.0000
      9 C9          -0.8745  -1.3336  -2.3935 C.3            1 <1>                0.0000
     10 C10          0.1364  -2.0043  -3.2988 C.ar           1 <1>                0.0000
     11 C11         -0.0471  -2.7544  -4.4485 C.ar           1 <1>                0.0000
     12 C12          1.0417  -3.2755  -5.1194 C.ar           1 <1>                0.0000
     13 C13          2.3194  -3.0482  -4.6427 C.ar           1 <1>                0.0000
     14 C14          2.5043  -2.3005  -3.4964 C.ar           1 <1>                0.0000
     15 C15          1.4137  -1.7770  -2.8221 C.ar           1 <1>                0.0000
     16 N16         -0.5899  -0.2096  -0.2046 N.am           1 <1>                0.0000
     17 C17         -1.5236   0.7172   0.0881 C.2            1 <1>                0.0000
     18 O18         -1.9287   1.4675  -0.7795 O.2            1 <1>                0.0000
     19 C19         -2.0528   0.8214   1.4562 C.2            1 <1>                0.0000
     20 C20         -2.9962   1.7071   1.8705 C.2            1 <1>                0.0000
     21 C21         -3.2254   1.4798   3.2491 C.ar           1 <1>                0.0000
     22 C22         -4.0709   2.0754   4.1945 C.ar           1 <1>                0.0000
     23 C23         -4.0692   1.6272   5.4850 C.ar           1 <1>                0.0000
     24 F24         -4.8854   2.2025   6.3949 F              1 <1>                0.0000
     25 C25         -3.2343   0.5830   5.8701 C.ar           1 <1>                0.0000
     26 C26         -2.3951  -0.0166   4.9584 C.ar           1 <1>                0.0000
     27 C27         -2.3798   0.4228   3.6375 C.ar           1 <1>                0.0000
     28 N28         -1.6743   0.0304   2.5235 N.pl3          1 <1>                0.0000
     29 H29         -1.0176  -0.6828   2.4931 H              1 <1>                0.0000
     30 H30          3.4382   2.6286  -1.0702 H              1 <1>                0.0000
     31 H31          4.5198   1.3919  -0.3854 H              1 <1>                0.0000
     32 H32          2.5594   0.1942   0.5479 H              1 <1>                0.0000
     33 H33          1.4778   1.4309  -0.1369 H              1 <1>                0.0000
     34 H34          2.1895   0.8570  -2.4071 H              1 <1>                0.0000
     35 H35          3.3927  -0.2911  -1.7728 H              1 <1>                0.0000
     36 H36          1.4835  -1.5661  -0.6832 H              1 <1>                0.0000
     37 H37         -0.0538   0.6611  -2.0559 H              1 <1>                0.0000
     38 H38         -1.3394  -2.0682  -1.7360 H              1 <1>                0.0000
     39 H39         -1.6328  -0.8223  -2.9866 H              1 <1>                0.0000
     40 H40         -1.0449  -2.9326  -4.8213 H              1 <1>                0.0000
     41 H41          0.8952  -3.8604  -6.0155 H              1 <1>                0.0000
     42 H42          3.1719  -3.4553  -5.1659 H              1 <1>                0.0000
     43 H43          3.5027  -2.1236  -3.1244 H              1 <1>                0.0000
     44 H44         -0.2669  -0.8079   0.4872 H              1 <1>                0.0000
     45 H45         -3.4838   2.4511   1.2581 H              1 <1>                0.0000
     46 H46         -4.7219   2.8867   3.9039 H              1 <1>                0.0000
     47 H47         -3.2444   0.2400   6.8941 H              1 <1>                0.0000
     48 H48         -1.7504  -0.8263   5.2670 H              1 <1>                0.0000
@<TRIPOS>BOND
    1    1    2 ar    
    2    2    3 ar    
    3    2    4 1     
    4    4    5 1     
    5    4   30 1     
    6    4   31 1     
    7    5    6 1     
    8    5   32 1     
    9    5   33 1     
   10    6    7 1     
   11    6   34 1     
   12    6   35 1     
   13    7   15 1     
   14    7    8 1     
   15    7   36 1     
   16    8    9 1     
   17    8   16 1     
   18    8   37 1     
   19    9   10 1     
   20    9   38 1     
   21    9   39 1     
   22   10   15 ar    
   23   10   11 ar    
   24   11   12 ar    
   25   11   40 1     
   26   12   13 ar    
   27   12   41 1     
   28   13   14 ar    
   29   13   42 1     
   30   14   15 ar    
   31   14   43 1     
   32   16   17 am    
   33   16   44 1     
   34   17   18 2     
   35   17   19 1     
   36   19   28 1     
   37   19   20 2     
   38   20   21 1     
   39   20   45 1     
   40   21   27 ar    
   41   21   22 ar    
   42   22   23 ar    
   43   22   46 1     
   44   23   24 1     
   45   23   25 ar    
   46   25   26 ar    
   47   25   47 1     
   48   26   27 ar    
   49   26   48 1     
   50   27   28 1     
   51   28   29 1     
@<TRIPOS>SUBSTRUCTURE
      1 ****           1
@<TRIPOS>SET
DONOR_HYDROGENS      STATIC     ATOMS    <user>   **** ""
2 44 29
ATOM$RED        STATIC     ATOMS    COLORGROUP SYSTEM
2 44 29
