#       Name:                IR6
#       Creating user name   gbret
#       Creation time:       Fri Sep  9 10:12:20 2016


#       File generated by GOLD software.
#

@<TRIPOS>MOLECULE
IR6
    48    51     1
SMALL
NO_CHARGES


@<TRIPOS>ATOM
      1 C1           1.8507   4.8006   0.1694 C.3            1 <1>                0.0000
      2 C2           2.0937   3.3281  -0.0394 C.2            1 <1>                0.0000
      3 O3           3.2295   2.9104  -0.1613 O.2            1 <1>                0.0000
      4 C4           1.0109   2.4399  -0.0932 C.2            1 <1>                0.0000
      5 C5          -0.3325   2.7857   0.0253 C.2            1 <1>                0.0000
      6 C6          -1.0787   1.6182  -0.0833 C.2            1 <1>                0.0000
      7 C7          -2.5541   1.5115  -0.0164 C.ar           1 <1>                0.0000
      8 C8          -3.2958   1.3155  -1.1818 C.ar           1 <1>                0.0000
      9 C9          -4.6701   1.2164  -1.1128 C.ar           1 <1>                0.0000
     10 C10         -5.3130   1.3115   0.1088 C.ar           1 <1>                0.0000
     11 C11         -4.5832   1.5058   1.2678 C.ar           1 <1>                0.0000
     12 C12         -3.2077   1.6007   1.2126 C.ar           1 <1>                0.0000
     13 S13         -2.2798   1.8483   2.6900 S.o2           1 <1>                0.0000
     14 C14         -1.3167   0.3229   2.8806 C.3            1 <1>                0.0000
     15 O15         -1.4256   2.9429   2.3880 O.2            1 <1>                0.0000
     16 O16         -3.2645   1.9470   3.7098 O.2            1 <1>                0.0000
     17 C17         -0.1718   0.5532  -0.2699 C.2            1 <1>                0.0000
     18 C18         -0.3704  -0.8220  -0.4358 C.2            1 <1>                0.0000
     19 C19          0.7262  -1.6465  -0.6025 C.2            1 <1>                0.0000
     20 O20          0.5618  -2.9828  -0.7657 O.3            1 <1>                0.0000
     21 C21          1.6643  -3.7346  -1.0223 C.ar           1 <1>                0.0000
     22 C22          2.5496  -4.0418   0.0011 C.ar           1 <1>                0.0000
     23 C23          3.6696  -4.8061  -0.2624 C.ar           1 <1>                0.0000
     24 C24          3.9090  -5.2649  -1.5447 C.ar           1 <1>                0.0000
     25 C25          3.0287  -4.9599  -2.5663 C.ar           1 <1>                0.0000
     26 C26          1.9039  -4.2011  -2.3070 C.ar           1 <1>                0.0000
     27 C27          2.0156  -1.0822  -0.6011 C.2            1 <1>                0.0000
     28 C28          2.1734   0.2480  -0.4383 C.2            1 <1>                0.0000
     29 N29          1.0955   1.0689  -0.2793 N.pl3          1 <1>                0.0000
     30 H30          2.8046   5.3279   0.1831 H              1 <1>                0.0000
     31 H31          1.2342   5.1859  -0.6427 H              1 <1>                0.0000
     32 H32          1.3376   4.9531   1.1190 H              1 <1>                0.0000
     33 H33         -0.7240   3.7811   0.1749 H              1 <1>                0.0000
     34 H34         -2.7952   1.2419  -2.1359 H              1 <1>                0.0000
     35 H35         -5.2453   1.0647  -2.0142 H              1 <1>                0.0000
     36 H36         -6.3891   1.2340   0.1576 H              1 <1>                0.0000
     37 H37         -5.0908   1.5795   2.2182 H              1 <1>                0.0000
     38 H38         -0.6020   0.2398   2.0618 H              1 <1>                0.0000
     39 H39         -0.7810   0.3477   3.8295 H              1 <1>                0.0000
     40 H40         -1.9885  -0.5353   2.8649 H              1 <1>                0.0000
     41 H41         -1.3687  -1.2341  -0.4334 H              1 <1>                0.0000
     42 H42          2.3633  -3.6833   1.0027 H              1 <1>                0.0000
     43 H43          4.3592  -5.0452   0.5337 H              1 <1>                0.0000
     44 H44          4.7853  -5.8624  -1.7486 H              1 <1>                0.0000
     45 H45          3.2181  -5.3192  -3.5670 H              1 <1>                0.0000
     46 H46          1.2164  -3.9634  -3.1052 H              1 <1>                0.0000
     47 H47          2.8808  -1.7155  -0.7304 H              1 <1>                0.0000
     48 H48          3.1676   0.6697  -0.4383 H              1 <1>                0.0000
@<TRIPOS>BOND
    1    1    2 1     
    2    1   30 1     
    3    1   31 1     
    4    1   32 1     
    5    2    3 2     
    6    2    4 1     
    7    4   29 1     
    8    4    5 2     
    9    5    6 1     
   10    5   33 1     
   11    6    7 1     
   12    6   17 2     
   13    7   12 ar    
   14    7    8 ar    
   15    8    9 ar    
   16    8   34 1     
   17    9   10 ar    
   18    9   35 1     
   19   10   11 ar    
   20   10   36 1     
   21   11   12 ar    
   22   11   37 1     
   23   12   13 1     
   24   13   14 1     
   25   13   15 2     
   26   13   16 2     
   27   14   38 1     
   28   14   39 1     
   29   14   40 1     
   30   17   29 1     
   31   17   18 1     
   32   18   19 2     
   33   18   41 1     
   34   19   20 1     
   35   19   27 1     
   36   20   21 1     
   37   21   26 ar    
   38   21   22 ar    
   39   22   23 ar    
   40   22   42 1     
   41   23   24 ar    
   42   23   43 1     
   43   24   25 ar    
   44   24   44 1     
   45   25   26 ar    
   46   25   45 1     
   47   26   46 1     
   48   27   28 2     
   49   27   47 1     
   50   28   29 1     
   51   28   48 1     
@<TRIPOS>SUBSTRUCTURE
      1 ****           1
