#       Name:                IUY
#       Creating user name   gbret
#       Creation time:       Fri Sep  9 10:16:21 2016


#       File generated by GOLD software.
#

@<TRIPOS>MOLECULE
IUY
    53    56     1
SMALL
NO_CHARGES


@<TRIPOS>ATOM
      1 C1           3.3024   4.7438  -0.9108 C.3            1 <1>                0.0000
      2 C2           3.3928   3.2165  -0.9148 C.3            1 <1>                0.0000
      3 O3           2.0762   2.6613  -0.8958 O.3            1 <1>                0.0000
      4 C4           1.9787   1.3151  -0.8966 C.2            1 <1>                0.0000
      5 O5           2.9860   0.6321  -0.9131 O.2            1 <1>                0.0000
      6 C6           0.7077   0.6990  -0.8784 C.2            1 <1>                0.0000
      7 C7           0.6383  -0.6371  -1.0046 C.2            1 <1>                0.0000
      8 C8           1.9110  -1.4315  -1.1472 C.3            1 <1>                0.0000
      9 N9          -0.5680  -1.2942  -1.0059 N.pl3          1 <1>                0.0000
     10 C10         -1.7187  -0.5244  -1.1496 C.cat          1 <1>                0.0000
     11 N11         -2.9784  -0.9320  -1.4234 N.pl3          1 <1>                0.0000
     12 H12         -3.2731  -1.8460  -1.5597 H              1 <1>                0.0000
     13 C13         -3.7628   0.1982  -1.4713 C.2            1 <1>                0.0000
     14 C14         -2.9567   1.2481  -1.2234 C.2            1 <1>                0.0000
     15 N15         -1.7150   0.7893  -1.0273 N.pl3          1 <1>                0.0000
     16 C16         -0.5105   1.5653  -0.7124 C.3            1 <1>                0.0000
     17 C17         -0.5892   2.0579   0.7097 C.ar           1 <1>                0.0000
     18 C18         -0.6801   1.1493   1.7491 C.ar           1 <1>                0.0000
     19 C19         -0.7524   1.5933   3.0532 C.ar           1 <1>                0.0000
     20 C20         -0.7333   2.9632   3.3230 C.ar           1 <1>                0.0000
     21 C21         -0.6409   3.8746   2.2691 C.ar           1 <1>                0.0000
     22 C22         -0.5644   3.4166   0.9701 C.ar           1 <1>                0.0000
     23 C23         -0.8085   3.4313   4.6742 C.1            1 <1>                0.0000
     24 N24         -0.8681   3.8026   5.7461 N.1            1 <1>                0.0000
     25 C25         -0.6373  -2.6851  -0.8684 C.ar           1 <1>                0.0000
     26 C26         -1.0953  -3.4667  -1.9216 C.ar           1 <1>                0.0000
     27 C27         -1.1625  -4.8389  -1.7827 C.ar           1 <1>                0.0000
     28 C28         -0.7745  -5.4353  -0.5966 C.ar           1 <1>                0.0000
     29 C29         -0.3182  -4.6602   0.4536 C.ar           1 <1>                0.0000
     30 C30         -0.2431  -3.2875   0.3192 C.ar           1 <1>                0.0000
     31 C31          0.1035  -5.3142   1.7441 C.3            1 <1>                0.0000
     32 F32         -0.0556  -6.7001   1.6383 F              1 <1>                0.0000
     33 F33          1.4464  -5.0173   2.0004 F              1 <1>                0.0000
     34 F34         -0.6888  -4.8325   2.7917 F              1 <1>                0.0000
     35 H35          4.3067   5.1672  -0.9253 H              1 <1>                0.0000
     36 H36          2.7545   5.0777  -1.7919 H              1 <1>                0.0000
     37 H37          2.7816   5.0746  -0.0122 H              1 <1>                0.0000
     38 H38          3.9136   2.8857  -1.8134 H              1 <1>                0.0000
     39 H39          3.9407   2.8826  -0.0336 H              1 <1>                0.0000
     40 H40          2.5023  -1.3369  -0.2365 H              1 <1>                0.0000
     41 H41          1.6675  -2.4806  -1.3151 H              1 <1>                0.0000
     42 H42          2.4835  -1.0515  -1.9933 H              1 <1>                0.0000
     43 H43         -4.8236   0.2358  -1.6704 H              1 <1>                0.0000
     44 H44         -3.2605   2.2839  -1.1890 H              1 <1>                0.0000
     45 H45         -0.4420   2.4184  -1.3874 H              1 <1>                0.0000
     46 H46         -0.6948   0.0900   1.5391 H              1 <1>                0.0000
     47 H47         -0.8240   0.8830   3.8636 H              1 <1>                0.0000
     48 H48         -0.6256   4.9355   2.4708 H              1 <1>                0.0000
     49 H49         -0.4926   4.1204   0.1541 H              1 <1>                0.0000
     50 H50         -1.3987  -3.0016  -2.8479 H              1 <1>                0.0000
     51 H51         -1.5187  -5.4471  -2.6009 H              1 <1>                0.0000
     52 H52         -0.8284  -6.5087  -0.4904 H              1 <1>                0.0000
     53 H53          0.1133  -2.6827   1.1398 H              1 <1>                0.0000
@<TRIPOS>BOND
    1    1    2 1     
    2    1   35 1     
    3    1   36 1     
    4    1   37 1     
    5    2    3 1     
    6    2   38 1     
    7    2   39 1     
    8    3    4 1     
    9    4    5 2     
   10    4    6 1     
   11    6   16 1     
   12    6    7 2     
   13    7    8 1     
   14    7    9 1     
   15    8   40 1     
   16    8   41 1     
   17    8   42 1     
   18    9   10 ar    
   19    9   25 1     
   20   10   15 ar    
   21   10   11 ar    
   22   11   12 1     
   23   11   13 1     
   24   13   14 2     
   25   13   43 1     
   26   14   15 1     
   27   14   44 1     
   28   15   16 1     
   29   16   17 1     
   30   16   45 1     
   31   17   22 ar    
   32   17   18 ar    
   33   18   19 ar    
   34   18   46 1     
   35   19   20 ar    
   36   19   47 1     
   37   20   21 ar    
   38   20   23 1     
   39   21   22 ar    
   40   21   48 1     
   41   22   49 1     
   42   23   24 3     
   43   25   30 ar    
   44   25   26 ar    
   45   26   27 ar    
   46   26   50 1     
   47   27   28 ar    
   48   27   51 1     
   49   28   29 ar    
   50   28   52 1     
   51   29   30 ar    
   52   29   31 1     
   53   30   53 1     
   54   31   32 1     
   55   31   33 1     
   56   31   34 1     
@<TRIPOS>SUBSTRUCTURE
      1 ****           1
@<TRIPOS>SET
DONOR_HYDROGENS      STATIC     ATOMS    <user>   **** ""
1 12
ATOM$RED        STATIC     ATOMS    COLORGROUP SYSTEM
1 12
