#       Name:                IVM
#       Creating user name   gbret
#       Creation time:       Fri Sep  9 10:17:01 2016


#       File generated by GOLD software.
#

@<TRIPOS>MOLECULE
IVM
   136   142     1
SMALL
NO_CHARGES


@<TRIPOS>ATOM
      1 C1          -1.3531  -2.3633  -4.3257 C.3            1 <1>                0.0000
      2 C2          -0.9092  -3.8248  -4.4152 C.3            1 <1>                0.0000
      3 C3          -2.0744  -4.7365  -4.0254 C.3            1 <1>                0.0000
      4 C4          -3.1442  -4.6923  -5.1182 C.3            1 <1>                0.0000
      5 C5          -1.5678  -6.1713  -3.8653 C.3            1 <1>                0.0000
      6 O6          -0.7453  -6.2616  -2.7009 O.3            1 <1>                0.0000
      7 C7          -1.4048  -5.8101  -1.4976 C.3            1 <1>                0.0000
      8 C8          -2.5833  -6.7571  -1.2317 C.3            1 <1>                0.0000
      9 C9          -3.5276  -6.7491  -2.4344 C.3            1 <1>                0.0000
     10 C10         -2.7584  -7.1209  -3.7033 C.3            1 <1>                0.0000
     11 C11         -3.6819  -6.9947  -4.9166 C.3            1 <1>                0.0000
     12 C12         -0.4129  -5.8566  -0.3750 C.3            1 <1>                0.0000
     13 C13         -0.1987  -4.7122   0.5682 C.3            1 <1>                0.0000
     14 C14         -0.7089  -3.4019   0.0153 C.3            1 <1>                0.0000
     15 C15         -0.9383  -3.4979  -1.4886 C.3            1 <1>                0.0000
     16 C16         -1.4404  -2.1458  -2.0105 C.3            1 <1>                0.0000
     17 C17         -0.5190  -1.0722  -1.4915 C.2            1 <1>                0.0000
     18 C18         -0.4650   0.1083  -2.0566 C.2            1 <1>                0.0000
     19 C19         -1.3403   0.4458  -3.2360 C.3            1 <1>                0.0000
     20 C20          0.5035   1.1231  -1.4880 C.3            1 <1>                0.0000
     21 O21         -0.0914   1.7826  -0.3686 O.3            1 <1>                0.0000
     22 C22         -0.8213   2.9628  -0.7098 C.3            1 <1>                0.0000
     23 C23         -1.5134   3.5142   0.5394 C.3            1 <1>                0.0000
     24 C24         -2.2437   4.8114   0.1785 C.3            1 <1>                0.0000
     25 O25         -2.8316   5.3720   1.3541 O.3            1 <1>                0.0000
     26 C26         -4.1639   4.9224   1.6089 C.3            1 <1>                0.0000
     27 C27         -1.2377   5.8028  -0.4141 C.3            1 <1>                0.0000
     28 O28         -0.2538   6.1300   0.5692 O.3            1 <1>                0.0000
     29 C29         -0.6355   7.1959   1.4411 C.3            1 <1>                0.0000
     30 C30          0.4451   7.3954   2.5071 C.3            1 <1>                0.0000
     31 C31          0.0578   8.5778   3.4006 C.3            1 <1>                0.0000
     32 O32          1.0961   8.8176   4.3527 O.3            1 <1>                0.0000
     33 C33          0.9415   8.0947   5.5756 C.3            1 <1>                0.0000
     34 C34         -0.1343   9.8217   2.5276 C.3            1 <1>                0.0000
     35 O35          1.1022  10.1563   1.8943 O.3            1 <1>                0.0000
     36 C36         -1.1926   9.5285   1.4609 C.3            1 <1>                0.0000
     37 C37         -1.3471  10.7461   0.5473 C.3            1 <1>                0.0000
     38 O38         -0.7852   8.3995   0.6854 O.3            1 <1>                0.0000
     39 C39         -0.5562   5.1631  -1.6266 C.3            1 <1>                0.0000
     40 C40          0.4933   6.1243  -2.1882 C.3            1 <1>                0.0000
     41 O41          0.0773   3.9458  -1.2279 O.3            1 <1>                0.0000
     42 C42          1.7671   0.3803  -1.0390 C.3            1 <1>                0.0000
     43 C43          3.0040   1.1573  -1.4942 C.3            1 <1>                0.0000
     44 C44          1.7743   0.2608   0.4579 C.2            1 <1>                0.0000
     45 C45          2.3295  -0.7870   1.0722 C.2            1 <1>                0.0000
     46 C46          2.3028  -0.8020   2.5336 C.2            1 <1>                0.0000
     47 C47          2.9039  -1.6684   3.3212 C.2            1 <1>                0.0000
     48 C48          2.9304  -1.5710   4.8545 C.3            1 <1>                0.0000
     49 O49          3.8473  -2.5817   5.3326 O.3            1 <1>                0.0000
     50 C50          3.6813  -3.6393   4.3915 C.3            1 <1>                0.0000
     51 C51          4.7674  -4.6993   4.3749 C.3            1 <1>                0.0000
     52 O52          4.7687  -5.4271   5.6046 O.3            1 <1>                0.0000
     53 C53          4.4101  -5.6168   3.2205 C.2            1 <1>                0.0000
     54 C54          4.8509  -7.0571   3.2647 C.3            1 <1>                0.0000
     55 C55          3.7369  -5.1949   2.1984 C.2            1 <1>                0.0000
     56 C56          3.2173  -3.8041   1.9561 C.3            1 <1>                0.0000
     57 C57          1.7076  -3.8456   1.8497 C.2            1 <1>                0.0000
     58 O58          0.9883  -3.2454   2.6128 O.2            1 <1>                0.0000
     59 O59          1.2228  -4.5971   0.8465 O.3            1 <1>                0.0000
     60 C60          3.7338  -2.8875   3.0306 C.3            1 <1>                0.0000
     61 O61          5.0878  -2.4974   2.7358 O.3            1 <1>                0.0000
     62 O62         -1.9188  -4.5047  -1.7619 O.3            1 <1>                0.0000
     63 H63         -0.5372  -1.7594  -3.9286 H              1 <1>                0.0000
     64 H64         -1.6212  -2.0036  -5.3191 H              1 <1>                0.0000
     65 H65         -2.2171  -2.2858  -3.6657 H              1 <1>                0.0000
     66 H66         -0.5986  -4.0483  -5.4358 H              1 <1>                0.0000
     67 H67         -0.0734  -3.9929  -3.7360 H              1 <1>                0.0000
     68 H68         -2.5032  -4.3953  -3.0831 H              1 <1>                0.0000
     69 H69         -4.1262  -4.5712  -4.6608 H              1 <1>                0.0000
     70 H70         -2.9480  -3.8526  -5.7850 H              1 <1>                0.0000
     71 H71         -3.1207  -5.6215  -5.6875 H              1 <1>                0.0000
     72 H72         -0.9910  -6.4554  -4.7455 H              1 <1>                0.0000
     73 H73         -2.2079  -7.7678  -1.0715 H              1 <1>                0.0000
     74 H74         -3.1226  -6.4254  -0.3444 H              1 <1>                0.0000
     75 H75         -4.3275  -7.4713  -2.2714 H              1 <1>                0.0000
     76 H76         -3.9578  -5.7544  -2.5502 H              1 <1>                0.0000
     77 H77         -2.3981  -8.1465  -3.6236 H              1 <1>                0.0000
     78 H78         -4.3322  -6.1292  -4.7897 H              1 <1>                0.0000
     79 H79         -3.0823  -6.8696  -5.8182 H              1 <1>                0.0000
     80 H80         -4.2891  -7.8954  -5.0062 H              1 <1>                0.0000
     81 H81         -0.6705  -6.7221   0.2354 H              1 <1>                0.0000
     82 H82          0.5559  -6.0803  -0.8217 H              1 <1>                0.0000
     83 H83         -0.7106  -4.9195   1.5210 H              1 <1>                0.0000
     84 H84         -1.6487  -3.1479   0.5056 H              1 <1>                0.0000
     85 H85          0.0223  -2.6191   0.2169 H              1 <1>                0.0000
     86 H86         -0.0106  -3.7551  -1.9969 H              1 <1>                0.0000
     87 H87         -1.4295  -2.1449  -3.1005 H              1 <1>                0.0000
     88 H88         -2.4539  -1.9661  -1.6518 H              1 <1>                0.0000
     89 H89          0.1083  -1.2798  -0.6373 H              1 <1>                0.0000
     90 H90         -1.9599  -0.4152  -3.4868 H              1 <1>                0.0000
     91 H91         -1.9792   1.2921  -2.9839 H              1 <1>                0.0000
     92 H92         -0.7148   0.7045  -4.0904 H              1 <1>                0.0000
     93 H93          0.7594   1.8560  -2.2531 H              1 <1>                0.0000
     94 H94         -1.5704   2.7216  -1.4640 H              1 <1>                0.0000
     95 H95         -2.2315   2.7830   0.9107 H              1 <1>                0.0000
     96 H96         -0.7685   3.7175   1.3088 H              1 <1>                0.0000
     97 H97         -3.0232   4.5995  -0.5534 H              1 <1>                0.0000
     98 H98         -4.8048   5.1912   0.7692 H              1 <1>                0.0000
     99 H99         -4.1642   3.8396   1.7341 H              1 <1>                0.0000
    100 H100        -4.5388   5.3934   2.5176 H              1 <1>                0.0000
    101 H101        -1.7585   6.7089  -0.7239 H              1 <1>                0.0000
    102 H102        -1.5814   6.9497   1.9237 H              1 <1>                0.0000
    103 H103         0.5299   6.4933   3.1131 H              1 <1>                0.0000
    104 H104         1.4000   7.6016   2.0236 H              1 <1>                0.0000
    105 H105        -0.8712   8.3507   3.9236 H              1 <1>                0.0000
    106 H106         1.7690   8.3312   6.2445 H              1 <1>                0.0000
    107 H107         0.0005   8.3768   6.0480 H              1 <1>                0.0000
    108 H108         0.9372   7.0249   5.3672 H              1 <1>                0.0000
    109 H109        -0.4629  10.6552   3.1485 H              1 <1>                0.0000
    110 H110         1.0539  10.9363   1.3247 H              1 <1>                0.0000
    111 H111        -2.1457   9.3132   1.9439 H              1 <1>                0.0000
    112 H112        -0.3941  10.9610   0.0641 H              1 <1>                0.0000
    113 H113        -2.1006  10.5371  -0.2121 H              1 <1>                0.0000
    114 H114        -1.6569  11.6074   1.1392 H              1 <1>                0.0000
    115 H115        -1.3019   4.9510  -2.3928 H              1 <1>                0.0000
    116 H116         1.2860   6.2663  -1.4537 H              1 <1>                0.0000
    117 H117         0.9155   5.7074  -3.1025 H              1 <1>                0.0000
    118 H118         0.0259   7.0841  -2.4085 H              1 <1>                0.0000
    119 H119         1.7801  -0.6153  -1.4826 H              1 <1>                0.0000
    120 H120         2.9910   2.1531  -1.0510 H              1 <1>                0.0000
    121 H121         3.9026   0.6293  -1.1750 H              1 <1>                0.0000
    122 H122         2.9997   1.2431  -2.5808 H              1 <1>                0.0000
    123 H123         1.3201   1.0404   1.0514 H              1 <1>                0.0000
    124 H124         2.7810  -1.5917   0.5111 H              1 <1>                0.0000
    125 H125         1.7319  -0.0226   3.0163 H              1 <1>                0.0000
    126 H126         3.2768  -0.5829   5.1574 H              1 <1>                0.0000
    127 H127         1.9335  -1.7554   5.2551 H              1 <1>                0.0000
    128 H128         2.7045  -4.0999   4.5170 H              1 <1>                0.0000
    129 H129         5.7415  -4.2399   4.2071 H              1 <1>                0.0000
    130 H130         5.4428  -6.1188   5.6515 H              1 <1>                0.0000
    131 H131         4.0808  -7.6581   3.7483 H              1 <1>                0.0000
    132 H132         5.0104  -7.4196   2.2491 H              1 <1>                0.0000
    133 H133         5.7804  -7.1355   3.8285 H              1 <1>                0.0000
    134 H134         3.5242  -5.9251   1.4316 H              1 <1>                0.0000
    135 H135         3.5999  -3.4625   0.9798 H              1 <1>                0.0000
    136 H136         5.1898  -2.0388   1.8906 H              1 <1>                0.0000
@<TRIPOS>BOND
    1    1    2 1     
    2    1   63 1     
    3    1   64 1     
    4    1   65 1     
    5    2    3 1     
    6    2   66 1     
    7    2   67 1     
    8    3    4 1     
    9    3    5 1     
   10    3   68 1     
   11    4   69 1     
   12    4   70 1     
   13    4   71 1     
   14    5   10 1     
   15    5    6 1     
   16    5   72 1     
   17    6    7 1     
   18    7   62 1     
   19    7    8 1     
   20    7   12 1     
   21    8    9 1     
   22    8   73 1     
   23    8   74 1     
   24    9   10 1     
   25    9   75 1     
   26    9   76 1     
   27   10   11 1     
   28   10   77 1     
   29   11   78 1     
   30   11   79 1     
   31   11   80 1     
   32   12   13 1     
   33   12   81 1     
   34   12   82 1     
   35   13   59 1     
   36   13   14 1     
   37   13   83 1     
   38   14   15 1     
   39   14   84 1     
   40   14   85 1     
   41   15   16 1     
   42   15   62 1     
   43   15   86 1     
   44   16   17 1     
   45   16   87 1     
   46   16   88 1     
   47   17   18 2     
   48   17   89 1     
   49   18   19 1     
   50   18   20 1     
   51   19   90 1     
   52   19   91 1     
   53   19   92 1     
   54   20   21 1     
   55   20   42 1     
   56   20   93 1     
   57   21   22 1     
   58   22   41 1     
   59   22   23 1     
   60   22   94 1     
   61   23   24 1     
   62   23   95 1     
   63   23   96 1     
   64   24   25 1     
   65   24   27 1     
   66   24   97 1     
   67   25   26 1     
   68   26   98 1     
   69   26   99 1     
   70   26  100 1     
   71   27   28 1     
   72   27   39 1     
   73   27  101 1     
   74   28   29 1     
   75   29   38 1     
   76   29   30 1     
   77   29  102 1     
   78   30   31 1     
   79   30  103 1     
   80   30  104 1     
   81   31   32 1     
   82   31   34 1     
   83   31  105 1     
   84   32   33 1     
   85   33  106 1     
   86   33  107 1     
   87   33  108 1     
   88   34   35 1     
   89   34   36 1     
   90   34  109 1     
   91   35  110 1     
   92   36   37 1     
   93   36   38 1     
   94   36  111 1     
   95   37  112 1     
   96   37  113 1     
   97   37  114 1     
   98   39   40 1     
   99   39   41 1     
  100   39  115 1     
  101   40  116 1     
  102   40  117 1     
  103   40  118 1     
  104   42   43 1     
  105   42   44 1     
  106   42  119 1     
  107   43  120 1     
  108   43  121 1     
  109   43  122 1     
  110   44   45 2     
  111   44  123 1     
  112   45   46 1     
  113   45  124 1     
  114   46   47 2     
  115   46  125 1     
  116   47   60 1     
  117   47   48 1     
  118   48   49 1     
  119   48  126 1     
  120   48  127 1     
  121   49   50 1     
  122   50   60 1     
  123   50   51 1     
  124   50  128 1     
  125   51   52 1     
  126   51   53 1     
  127   51  129 1     
  128   52  130 1     
  129   53   54 1     
  130   53   55 2     
  131   54  131 1     
  132   54  132 1     
  133   54  133 1     
  134   55   56 1     
  135   55  134 1     
  136   56   57 1     
  137   56   60 1     
  138   56  135 1     
  139   57   58 2     
  140   57   59 1     
  141   60   61 1     
  142   61  136 1     
@<TRIPOS>SUBSTRUCTURE
      1 ****           1
@<TRIPOS>SET
DONOR_HYDROGENS      STATIC     ATOMS    <user>   **** ""
3 110 130 136
ATOM$RED        STATIC     ATOMS    COLORGROUP SYSTEM
3 110 130 136
