#       Name:                J0Z
#       Creating user name   gbret
#       Creation time:       Fri Sep  9 10:21:42 2016


#       File generated by GOLD software.
#

@<TRIPOS>MOLECULE
J0Z
    21    21     1
SMALL
NO_CHARGES


@<TRIPOS>ATOM
      1 C1           2.1413   3.3270  -0.0026 C.3            1 <1>                0.0000
      2 C2           2.1618   1.8201  -0.0109 C.2            1 <1>                0.0000
      3 O3           3.2162   1.2303  -0.0241 O.2            1 <1>                0.0000
      4 O4           1.0086   1.1332  -0.0036 O.3            1 <1>                0.0000
      5 C5           1.1042  -0.3156  -0.0123 C.3            1 <1>                0.0000
      6 C6          -0.2803  -0.9105  -0.0022 C.ar           1 <1>                0.0000
      7 C7          -0.9062  -1.1845   1.1995 C.ar           1 <1>                0.0000
      8 C8          -2.1762  -1.7302   1.2087 C.ar           1 <1>                0.0000
      9 C9          -2.8206  -2.0014   0.0162 C.ar           1 <1>                0.0000
     10 C10         -2.1951  -1.7266  -1.1855 C.ar           1 <1>                0.0000
     11 C11         -0.9268  -1.1769  -1.1947 C.ar           1 <1>                0.0000
     12 H12          3.1639   3.7043  -0.0103 H              1 <1>                0.0000
     13 H13          1.6142   3.6881  -0.8857 H              1 <1>                0.0000
     14 H14          1.6311   3.6785   0.8942 H              1 <1>                0.0000
     15 H15          1.6324  -0.6395  -0.9091 H              1 <1>                0.0000
     16 H16          1.6493  -0.6490   0.8708 H              1 <1>                0.0000
     17 H17         -0.4027  -0.9726   2.1312 H              1 <1>                0.0000
     18 H18         -2.6649  -1.9450   2.1476 H              1 <1>                0.0000
     19 H19         -3.8126  -2.4284   0.0234 H              1 <1>                0.0000
     20 H20         -2.6985  -1.9388  -2.1172 H              1 <1>                0.0000
     21 H21         -0.4381  -0.9622  -2.1336 H              1 <1>                0.0000
@<TRIPOS>BOND
    1    1    2 1     
    2    1   12 1     
    3    1   13 1     
    4    1   14 1     
    5    2    3 2     
    6    2    4 1     
    7    4    5 1     
    8    5    6 1     
    9    5   15 1     
   10    5   16 1     
   11    6   11 ar    
   12    6    7 ar    
   13    7    8 ar    
   14    7   17 1     
   15    8    9 ar    
   16    8   18 1     
   17    9   10 ar    
   18    9   19 1     
   19   10   11 ar    
   20   10   20 1     
   21   11   21 1     
@<TRIPOS>SUBSTRUCTURE
      1 ****           1
