#       Name:                J21
#       Creating user name   gbret
#       Creation time:       Fri Sep  9 10:22:35 2016


#       File generated by GOLD software.
#

@<TRIPOS>MOLECULE
J21
    66    66     1
SMALL
NO_CHARGES


@<TRIPOS>ATOM
      1 C1           3.0740   1.9348   6.3059 C.3            1 <1>                0.0000
      2 C2           3.0945   0.4279   6.2976 C.2            1 <1>                0.0000
      3 O3           4.1529  -0.1641   6.2843 O.2            1 <1>                0.0000
      4 N4           1.9366  -0.2618   6.3050 N.am           1 <1>                0.0000
      5 C5           1.9564  -1.7266   6.2969 C.3            1 <1>                0.0000
      6 C6           0.5211  -2.2562   6.3078 C.3            1 <1>                0.0000
      7 O7          -0.1345  -1.8803   5.0949 O.3            1 <1>                0.0000
      8 C8          -1.4237  -2.2745   4.9440 C.ar           1 <1>                0.0000
      9 C9          -2.0505  -3.0034   5.9433 C.ar           1 <1>                0.0000
     10 C10         -3.3637  -3.4041   5.7881 C.ar           1 <1>                0.0000
     11 Br11        -4.2114  -4.3978   7.1555 Br             1 <1>                0.0000
     12 C12         -4.0636  -3.0812   4.6354 C.ar           1 <1>                0.0000
     13 C13         -3.4559  -2.3573   3.6334 C.ar           1 <1>                0.0000
     14 C14         -2.1299  -1.9417   3.7798 C.ar           1 <1>                0.0000
     15 C15         -1.4734  -1.1664   2.7106 C.2            1 <1>                0.0000
     16 O16         -0.3194  -0.8064   2.8414 O.2            1 <1>                0.0000
     17 N17         -2.1527  -0.8569   1.5884 N.am           1 <1>                0.0000
     18 C18         -1.5007  -0.0868   0.5263 C.3            1 <1>                0.0000
     19 C19         -2.4839   0.1260  -0.6265 C.3            1 <1>                0.0000
     20 C20         -1.8030   0.9303  -1.7357 C.3            1 <1>                0.0000
     21 C21         -2.7862   1.1431  -2.8884 C.3            1 <1>                0.0000
     22 C22         -2.1053   1.9474  -3.9976 C.3            1 <1>                0.0000
     23 N23         -1.0062   1.1627  -4.5655 N.am           1 <1>                0.0000
     24 C24          0.0279   1.7861  -5.1641 C.2            1 <1>                0.0000
     25 O25          0.0487   2.9999  -5.2328 O.2            1 <1>                0.0000
     26 N26          1.0390   1.0642  -5.6865 N.am           1 <1>                0.0000
     27 C27          2.1631   1.7419  -6.3372 C.3            1 <1>                0.0000
     28 C28          3.4015   0.8453  -6.2800 C.3            1 <1>                0.0000
     29 C29          3.8296   0.6592  -4.8230 C.3            1 <1>                0.0000
     30 C30          5.0494  -0.2240  -4.7666 C.2            1 <1>                0.0000
     31 O31          5.5316  -0.6638  -5.7964 O.co2          1 <1>                0.0000
     32 O32          5.5540  -0.4987  -3.6913 O.co2          1 <1>                0.0000
     33 C33          1.8142   2.0255  -7.7756 C.2            1 <1>                0.0000
     34 O34          2.2917   2.9957  -8.3388 O.co2          1 <1>                0.0000
     35 O35          1.0545   1.2847  -8.3761 O.co2          1 <1>                0.0000
     36 C36         -3.1079   2.2624  -5.0776 C.2            1 <1>                0.0000
     37 O37         -4.0060   3.0585  -4.8624 O.co2          1 <1>                0.0000
     38 O38         -3.0211   1.7212  -6.1667 O.co2          1 <1>                0.0000
     39 H39          4.0966   2.3121   6.2982 H              1 <1>                0.0000
     40 H40          2.5469   2.2959   5.4228 H              1 <1>                0.0000
     41 H41          2.5638   2.2863   7.2027 H              1 <1>                0.0000
     42 H42          1.0901   0.2117   6.3156 H              1 <1>                0.0000
     43 H43          2.4666  -2.0781   5.4001 H              1 <1>                0.0000
     44 H44          2.4836  -2.0877   7.1800 H              1 <1>                0.0000
     45 H45          0.5353  -3.3429   6.3914 H              1 <1>                0.0000
     46 H46         -0.0158  -1.8335   7.1570 H              1 <1>                0.0000
     47 H47         -1.5116  -3.2585   6.8437 H              1 <1>                0.0000
     48 H48         -5.0897  -3.3990   4.5226 H              1 <1>                0.0000
     49 H49         -4.0049  -2.1081   2.7373 H              1 <1>                0.0000
     50 H50         -3.0734  -1.1441   1.4840 H              1 <1>                0.0000
     51 H51         -1.1866   0.8802   0.9192 H              1 <1>                0.0000
     52 H52         -0.6292  -0.6324   0.1645 H              1 <1>                0.0000
     53 H53         -2.7980  -0.8410  -1.0193 H              1 <1>                0.0000
     54 H54         -3.3554   0.6716  -0.2647 H              1 <1>                0.0000
     55 H55         -1.4889   1.8973  -1.3428 H              1 <1>                0.0000
     56 H56         -0.9315   0.3847  -2.0974 H              1 <1>                0.0000
     57 H57         -3.1003   0.1761  -3.2813 H              1 <1>                0.0000
     58 H58         -3.6577   1.6887  -2.5266 H              1 <1>                0.0000
     59 H59         -1.7127   2.8764  -3.5842 H              1 <1>                0.0000
     60 H60         -1.0228   0.1944  -4.5107 H              1 <1>                0.0000
     61 H61          1.0225   0.0959  -5.6317 H              1 <1>                0.0000
     62 H62          2.3696   2.6799  -5.8217 H              1 <1>                0.0000
     63 H63          3.1676  -0.1256  -6.7168 H              1 <1>                0.0000
     64 H64          4.2127   1.3099  -6.8405 H              1 <1>                0.0000
     65 H65          4.0635   1.6301  -4.3862 H              1 <1>                0.0000
     66 H66          3.0184   0.1946  -4.2625 H              1 <1>                0.0000
@<TRIPOS>BOND
    1    1    2 1     
    2    1   39 1     
    3    1   40 1     
    4    1   41 1     
    5    2    3 2     
    6    2    4 am    
    7    4    5 1     
    8    4   42 1     
    9    5    6 1     
   10    5   43 1     
   11    5   44 1     
   12    6    7 1     
   13    6   45 1     
   14    6   46 1     
   15    7    8 1     
   16    8   14 ar    
   17    8    9 ar    
   18    9   10 ar    
   19    9   47 1     
   20   10   11 1     
   21   10   12 ar    
   22   12   13 ar    
   23   12   48 1     
   24   13   14 ar    
   25   13   49 1     
   26   14   15 1     
   27   15   16 2     
   28   15   17 am    
   29   17   18 1     
   30   17   50 1     
   31   18   19 1     
   32   18   51 1     
   33   18   52 1     
   34   19   20 1     
   35   19   53 1     
   36   19   54 1     
   37   20   21 1     
   38   20   55 1     
   39   20   56 1     
   40   21   22 1     
   41   21   57 1     
   42   21   58 1     
   43   22   23 1     
   44   22   36 1     
   45   22   59 1     
   46   23   24 am    
   47   23   60 1     
   48   24   25 2     
   49   24   26 am    
   50   26   27 1     
   51   26   61 1     
   52   27   28 1     
   53   27   33 1     
   54   27   62 1     
   55   28   29 1     
   56   28   63 1     
   57   28   64 1     
   58   29   30 1     
   59   29   65 1     
   60   29   66 1     
   61   30   31 ar    
   62   30   32 ar    
   63   33   34 ar    
   64   33   35 ar    
   65   36   37 ar    
   66   36   38 ar    
@<TRIPOS>SUBSTRUCTURE
      1 ****           1
@<TRIPOS>SET
DONOR_HYDROGENS      STATIC     ATOMS    <user>   **** ""
4 42 50 60 61
ATOM$RED        STATIC     ATOMS    COLORGROUP SYSTEM
4 42 50 60 61
