#       Name:                J37
#       Creating user name   gbret
#       Creation time:       Fri Sep  9 10:23:32 2016


#       File generated by GOLD software.
#

@<TRIPOS>MOLECULE
J37
   179   181     1
SMALL
NO_CHARGES


@<TRIPOS>ATOM
      1 O1         -11.8562 -10.3270  14.0421 O.co2          1 <1>                0.0000
      2 C2         -11.9455  -9.1348  13.8027 C.2            1 <1>                0.0000
      3 O3         -10.9399  -8.4781  13.5931 O.co2          1 <1>                0.0000
      4 C4         -13.2993  -8.4742  13.7598 C.3            1 <1>                0.0000
      5 C5         -14.3837  -9.5143  14.0486 C.3            1 <1>                0.0000
      6 C6         -15.7582  -8.8437  14.0050 C.3            1 <1>                0.0000
      7 N7         -16.0276  -8.3702  12.6451 N.am           1 <1>                0.0000
      8 C8         -16.8827  -7.3479  12.4445 C.2            1 <1>                0.0000
      9 O9         -17.4304  -6.8186  13.3922 O.2            1 <1>                0.0000
     10 N10        -17.1306  -6.9123  11.1934 N.am           1 <1>                0.0000
     11 C11        -18.0600  -5.8011  10.9753 C.3            1 <1>                0.0000
     12 C12        -17.7206  -5.1036   9.6565 C.3            1 <1>                0.0000
     13 C13        -16.3369  -4.4592   9.7618 C.3            1 <1>                0.0000
     14 C14        -15.9974  -3.7617   8.4430 C.3            1 <1>                0.0000
     15 C15        -14.6137  -3.1174   8.5483 C.3            1 <1>                0.0000
     16 N16        -14.2887  -2.4495   7.2855 N.am           1 <1>                0.0000
     17 C17        -14.6569  -1.0461   7.0832 C.3            1 <1>                0.0000
     18 C18        -13.5970  -0.1574   7.6816 C.ar           1 <1>                0.0000
     19 C19        -13.6233   0.1364   9.0321 C.ar           1 <1>                0.0000
     20 C20        -12.6512   0.9510   9.5814 C.ar           1 <1>                0.0000
     21 C21        -11.6519   1.4723   8.7796 C.ar           1 <1>                0.0000
     22 Br22       -10.3212   2.5864   9.5306 Br             1 <1>                0.0000
     23 C23        -11.6260   1.1781   7.4282 C.ar           1 <1>                0.0000
     24 C24        -12.5955   0.3591   6.8808 C.ar           1 <1>                0.0000
     25 C25        -13.6510  -3.1263   6.3099 C.2            1 <1>                0.0000
     26 O26        -13.4279  -4.3113   6.4400 O.2            1 <1>                0.0000
     27 C27        -13.2151  -2.4105   5.0574 C.3            1 <1>                0.0000
     28 C28        -12.4282  -3.3742   4.1669 C.3            1 <1>                0.0000
     29 O29        -12.0149  -2.6955   2.9792 O.3            1 <1>                0.0000
     30 C30        -11.2681  -3.5108   2.0739 C.3            1 <1>                0.0000
     31 C31        -10.8805  -2.6855   0.8453 C.3            1 <1>                0.0000
     32 O32         -9.9884  -1.6397   1.2361 O.3            1 <1>                0.0000
     33 C33         -9.5630  -0.8052   0.1570 C.3            1 <1>                0.0000
     34 C34         -8.6167   0.2731   0.6886 C.3            1 <1>                0.0000
     35 O35         -7.4252  -0.3409   1.1841 O.3            1 <1>                0.0000
     36 C36         -6.4691   0.5836   1.7068 C.3            1 <1>                0.0000
     37 C37         -5.2410  -0.1805   2.2059 C.3            1 <1>                0.0000
     38 O38         -4.5914  -0.8121   1.1009 O.3            1 <1>                0.0000
     39 C39         -3.4256  -1.5564   1.4601 C.3            1 <1>                0.0000
     40 C40         -2.8157  -2.1854   0.2058 C.3            1 <1>                0.0000
     41 O41         -2.3513  -1.1536  -0.6669 O.3            1 <1>                0.0000
     42 C42         -1.7604  -1.6364  -1.8751 C.3            1 <1>                0.0000
     43 C43         -1.3020  -0.4515  -2.7276 C.3            1 <1>                0.0000
     44 O44         -0.2568   0.2477  -2.0487 O.3            1 <1>                0.0000
     45 C45          0.2455   1.3785  -2.7634 C.3            1 <1>                0.0000
     46 C46          1.3539   2.0465  -1.9472 C.3            1 <1>                0.0000
     47 O47          2.4621   1.1522  -1.8273 O.3            1 <1>                0.0000
     48 C48          3.5579   1.6818  -1.0785 C.3            1 <1>                0.0000
     49 C49          4.6810   0.6447  -1.0153 C.3            1 <1>                0.0000
     50 O50          5.1951   0.4186  -2.3294 O.3            1 <1>                0.0000
     51 C51          6.2545  -0.5389  -2.3822 C.3            1 <1>                0.0000
     52 C52          6.7245  -0.7000  -3.8293 C.3            1 <1>                0.0000
     53 O53          7.3007   0.5267  -4.2824 O.3            1 <1>                0.0000
     54 C54          7.7743   0.4836  -5.6299 C.3            1 <1>                0.0000
     55 C55          8.3671   1.8430  -6.0059 C.3            1 <1>                0.0000
     56 O56          9.5243   2.0956  -5.2064 O.3            1 <1>                0.0000
     57 C57         10.1577   3.3471  -5.4797 C.3            1 <1>                0.0000
     58 C58         11.3777   3.5104  -4.5709 C.3            1 <1>                0.0000
     59 O59         12.3505   2.5154  -4.8961 O.3            1 <1>                0.0000
     60 C60         13.5360   2.5798  -4.1009 C.3            1 <1>                0.0000
     61 C61         14.5012   1.4744  -4.5338 C.3            1 <1>                0.0000
     62 O62         14.9318   1.7161  -5.8747 O.3            1 <1>                0.0000
     63 C63         15.8413   0.7360  -6.3788 C.3            1 <1>                0.0000
     64 C64         16.2329   1.0938  -7.8139 C.3            1 <1>                0.0000
     65 N65         16.9804   2.3538  -7.8163 N.am           1 <1>                0.0000
     66 C66         17.4306   2.8680  -8.9780 C.2            1 <1>                0.0000
     67 O67         17.2169   2.2877 -10.0213 O.2            1 <1>                0.0000
     68 C68         18.1996   4.1640  -8.9805 C.3            1 <1>                0.0000
     69 C69         18.5912   4.5219 -10.4156 C.3            1 <1>                0.0000
     70 C70         19.3719   5.8377 -10.4182 C.3            1 <1>                0.0000
     71 C71         19.7635   6.1956 -11.8532 C.3            1 <1>                0.0000
     72 C72         20.5442   7.5114 -11.8558 C.3            1 <1>                0.0000
     73 C73         20.9358   7.8693 -13.2909 C.3            1 <1>                0.0000
     74 S74         19.4630   8.4021 -14.2550 S.3            1 <1>                0.0000
     75 C75         20.4151   9.4637 -15.4165 C.3            1 <1>                0.0000
     76 C76         21.5353  10.0274 -14.5202 C.3            1 <1>                0.0000
     77 N77         21.0827  11.2902 -13.9159 N.am           1 <1>                0.0000
     78 C78         21.1021  11.1681 -12.5817 C.2            1 <1>                0.0000
     79 O79         20.7747  12.0649 -11.8287 O.2            1 <1>                0.0000
     80 N80         21.5147   9.9675 -12.1527 N.am           1 <1>                0.0000
     81 C81         21.8302   9.1243 -13.3164 C.3            1 <1>                0.0000
     82 C82        -19.4699  -6.3298  10.9156 C.2            1 <1>                0.0000
     83 O83        -20.3992  -5.6307  11.2819 O.co2          1 <1>                0.0000
     84 O84        -19.6814  -7.4567  10.5009 O.co2          1 <1>                0.0000
     85 C85        -16.8155  -9.8384  14.4093 C.2            1 <1>                0.0000
     86 O86        -17.1326  -9.9485  15.5815 O.co2          1 <1>                0.0000
     87 O87        -17.3539 -10.5331  13.5643 O.co2          1 <1>                0.0000
     88 H88        -13.3429  -7.6858  14.5111 H              1 <1>                0.0000
     89 H89        -13.4625  -8.0440  12.7717 H              1 <1>                0.0000
     90 H90        -14.3401 -10.3028  13.2972 H              1 <1>                0.0000
     91 H91        -14.2205  -9.9446  15.0367 H              1 <1>                0.0000
     92 H92        -15.7721  -7.9986  14.6934 H              1 <1>                0.0000
     93 H93        -15.5907  -8.7925  11.8890 H              1 <1>                0.0000
     94 H94        -16.6936  -7.3346  10.4373 H              1 <1>                0.0000
     95 H95        -17.9735  -5.0887  11.7958 H              1 <1>                0.0000
     96 H96        -17.7203  -5.8349   8.8483 H              1 <1>                0.0000
     97 H97        -18.4648  -4.3344   9.4503 H              1 <1>                0.0000
     98 H98        -16.3372  -3.7279  10.5700 H              1 <1>                0.0000
     99 H99        -15.5926  -5.2284   9.9681 H              1 <1>                0.0000
    100 H100       -15.9971  -4.4931   7.6348 H              1 <1>                0.0000
    101 H101       -16.7417  -2.9925   8.2367 H              1 <1>                0.0000
    102 H102       -14.6140  -2.3861   9.3565 H              1 <1>                0.0000
    103 H103       -13.8695  -3.8866   8.7545 H              1 <1>                0.0000
    104 H104       -14.7412  -0.8428   6.0156 H              1 <1>                0.0000
    105 H105       -15.6131  -0.8478   7.5675 H              1 <1>                0.0000
    106 H106       -14.4038  -0.2704   9.6581 H              1 <1>                0.0000
    107 H107       -12.6720   1.1808  10.6365 H              1 <1>                0.0000
    108 H108       -10.8459   1.5849   6.8018 H              1 <1>                0.0000
    109 H109       -12.5754   0.1293   5.8257 H              1 <1>                0.0000
    110 H110       -14.0929  -2.0531   4.5191 H              1 <1>                0.0000
    111 H111       -12.5827  -1.5638   5.3242 H              1 <1>                0.0000
    112 H112       -11.5504  -3.7317   4.7053 H              1 <1>                0.0000
    113 H113       -13.0606  -4.2210   3.9001 H              1 <1>                0.0000
    114 H114       -10.3662  -3.8712   2.5688 H              1 <1>                0.0000
    115 H115       -11.8764  -4.3604   1.7637 H              1 <1>                0.0000
    116 H116       -10.3887  -3.3289   0.1158 H              1 <1>                0.0000
    117 H117       -11.7766  -2.2517   0.4016 H              1 <1>                0.0000
    118 H118        -9.0438  -1.4095  -0.5869 H              1 <1>                0.0000
    119 H119       -10.4318  -0.3324  -0.3011 H              1 <1>                0.0000
    120 H120        -8.3623   0.9625  -0.1165 H              1 <1>                0.0000
    121 H121        -9.1056   0.8204   1.4946 H              1 <1>                0.0000
    122 H122        -6.1702   1.2793   0.9228 H              1 <1>                0.0000
    123 H123        -6.9134   1.1372   2.5339 H              1 <1>                0.0000
    124 H124        -4.5508   0.5141   2.6846 H              1 <1>                0.0000
    125 H125        -5.5520  -0.9376   2.9257 H              1 <1>                0.0000
    126 H126        -2.6977  -0.8904   1.9233 H              1 <1>                0.0000
    127 H127        -3.6989  -2.3421   2.1644 H              1 <1>                0.0000
    128 H128        -1.9797  -2.8247   0.4898 H              1 <1>                0.0000
    129 H129        -3.5713  -2.7814  -0.3060 H              1 <1>                0.0000
    130 H130        -0.9025  -2.2643  -1.6343 H              1 <1>                0.0000
    131 H131        -2.4941  -2.2210  -2.4300 H              1 <1>                0.0000
    132 H132        -0.9326  -0.8152  -3.6865 H              1 <1>                0.0000
    133 H133        -2.1419   0.2229  -2.8939 H              1 <1>                0.0000
    134 H134         0.6470   1.0528  -3.7230 H              1 <1>                0.0000
    135 H135        -0.5623   2.0910  -2.9305 H              1 <1>                0.0000
    136 H136         1.6758   2.9586  -2.4496 H              1 <1>                0.0000
    137 H137         0.9763   2.2923  -0.9546 H              1 <1>                0.0000
    138 H138         3.9255   2.5864  -1.5629 H              1 <1>                0.0000
    139 H139         3.2261   1.9200  -0.0679 H              1 <1>                0.0000
    140 H140         5.4795   1.0126  -0.3711 H              1 <1>                0.0000
    141 H141         4.2904  -0.2897  -0.6123 H              1 <1>                0.0000
    142 H142         7.0857  -0.1955  -1.7663 H              1 <1>                0.0000
    143 H143         5.8966  -1.4978  -2.0075 H              1 <1>                0.0000
    144 H144         7.4702  -1.4933  -3.8829 H              1 <1>                0.0000
    145 H145         5.8743  -0.9573  -4.4610 H              1 <1>                0.0000
    146 H146         8.5417  -0.2852  -5.7209 H              1 <1>                0.0000
    147 H147         6.9459   0.2509  -6.2990 H              1 <1>                0.0000
    148 H148         8.6473   1.8385  -7.0593 H              1 <1>                0.0000
    149 H149         7.6267   2.6234  -5.8302 H              1 <1>                0.0000
    150 H150        10.4750   3.3737  -6.5221 H              1 <1>                0.0000
    151 H151         9.4544   4.1587  -5.2931 H              1 <1>                0.0000
    152 H152        11.8088   4.5010  -4.7159 H              1 <1>                0.0000
    153 H153        11.0738   3.3951  -3.5305 H              1 <1>                0.0000
    154 H154        14.0119   3.5511  -4.2362 H              1 <1>                0.0000
    155 H155        13.2769   2.4452  -3.0507 H              1 <1>                0.0000
    156 H156        15.3660   1.4667  -3.8703 H              1 <1>                0.0000
    157 H157        13.9956   0.5101  -4.4828 H              1 <1>                0.0000
    158 H158        16.7339   0.7130  -5.7536 H              1 <1>                0.0000
    159 H159        15.3635  -0.2436  -6.3661 H              1 <1>                0.0000
    160 H160        16.8554   0.3012  -8.2290 H              1 <1>                0.0000
    161 H161        15.3332   1.2040  -8.4193 H              1 <1>                0.0000
    162 H162        17.1514   2.8179  -6.9819 H              1 <1>                0.0000
    163 H163        17.5771   4.9566  -8.5654 H              1 <1>                0.0000
    164 H164        19.0993   4.0539  -8.3751 H              1 <1>                0.0000
    165 H165        19.2137   3.7293 -10.8307 H              1 <1>                0.0000
    166 H166        17.6915   4.6320 -11.0210 H              1 <1>                0.0000
    167 H167        18.7494   6.6303 -10.0030 H              1 <1>                0.0000
    168 H168        20.2716   5.7276  -9.8127 H              1 <1>                0.0000
    169 H169        20.3860   5.4030 -12.2684 H              1 <1>                0.0000
    170 H170        18.8638   6.3057 -12.4587 H              1 <1>                0.0000
    171 H171        19.9217   8.3040 -11.4407 H              1 <1>                0.0000
    172 H172        21.4439   7.4013 -11.2504 H              1 <1>                0.0000
    173 H173        21.4346   7.0294 -13.7745 H              1 <1>                0.0000
    174 H174        20.8327   8.8694 -16.2292 H              1 <1>                0.0000
    175 H175        19.7903  10.2676 -15.8057 H              1 <1>                0.0000
    176 H176        22.4418  10.1861 -15.1043 H              1 <1>                0.0000
    177 H177        20.8139  12.0837 -14.4048 H              1 <1>                0.0000
    178 H178        21.5926   9.6977 -11.2243 H              1 <1>                0.0000
    179 H179        22.8819   8.8384 -13.3013 H              1 <1>                0.0000
@<TRIPOS>BOND
    1    1    2 ar    
    2    2    3 ar    
    3    2    4 1     
    4    4    5 1     
    5    4   88 1     
    6    4   89 1     
    7    5    6 1     
    8    5   90 1     
    9    5   91 1     
   10    6    7 1     
   11    6   85 1     
   12    6   92 1     
   13    7    8 am    
   14    7   93 1     
   15    8    9 2     
   16    8   10 am    
   17   10   11 1     
   18   10   94 1     
   19   11   12 1     
   20   11   82 1     
   21   11   95 1     
   22   12   13 1     
   23   12   96 1     
   24   12   97 1     
   25   13   14 1     
   26   13   98 1     
   27   13   99 1     
   28   14   15 1     
   29   14  100 1     
   30   14  101 1     
   31   15   16 1     
   32   15  102 1     
   33   15  103 1     
   34   16   17 1     
   35   16   25 am    
   36   17   18 1     
   37   17  104 1     
   38   17  105 1     
   39   18   24 ar    
   40   18   19 ar    
   41   19   20 ar    
   42   19  106 1     
   43   20   21 ar    
   44   20  107 1     
   45   21   22 1     
   46   21   23 ar    
   47   23   24 ar    
   48   23  108 1     
   49   24  109 1     
   50   25   26 2     
   51   25   27 1     
   52   27   28 1     
   53   27  110 1     
   54   27  111 1     
   55   28   29 1     
   56   28  112 1     
   57   28  113 1     
   58   29   30 1     
   59   30   31 1     
   60   30  114 1     
   61   30  115 1     
   62   31   32 1     
   63   31  116 1     
   64   31  117 1     
   65   32   33 1     
   66   33   34 1     
   67   33  118 1     
   68   33  119 1     
   69   34   35 1     
   70   34  120 1     
   71   34  121 1     
   72   35   36 1     
   73   36   37 1     
   74   36  122 1     
   75   36  123 1     
   76   37   38 1     
   77   37  124 1     
   78   37  125 1     
   79   38   39 1     
   80   39   40 1     
   81   39  126 1     
   82   39  127 1     
   83   40   41 1     
   84   40  128 1     
   85   40  129 1     
   86   41   42 1     
   87   42   43 1     
   88   42  130 1     
   89   42  131 1     
   90   43   44 1     
   91   43  132 1     
   92   43  133 1     
   93   44   45 1     
   94   45   46 1     
   95   45  134 1     
   96   45  135 1     
   97   46   47 1     
   98   46  136 1     
   99   46  137 1     
  100   47   48 1     
  101   48   49 1     
  102   48  138 1     
  103   48  139 1     
  104   49   50 1     
  105   49  140 1     
  106   49  141 1     
  107   50   51 1     
  108   51   52 1     
  109   51  142 1     
  110   51  143 1     
  111   52   53 1     
  112   52  144 1     
  113   52  145 1     
  114   53   54 1     
  115   54   55 1     
  116   54  146 1     
  117   54  147 1     
  118   55   56 1     
  119   55  148 1     
  120   55  149 1     
  121   56   57 1     
  122   57   58 1     
  123   57  150 1     
  124   57  151 1     
  125   58   59 1     
  126   58  152 1     
  127   58  153 1     
  128   59   60 1     
  129   60   61 1     
  130   60  154 1     
  131   60  155 1     
  132   61   62 1     
  133   61  156 1     
  134   61  157 1     
  135   62   63 1     
  136   63   64 1     
  137   63  158 1     
  138   63  159 1     
  139   64   65 1     
  140   64  160 1     
  141   64  161 1     
  142   65   66 am    
  143   65  162 1     
  144   66   67 2     
  145   66   68 1     
  146   68   69 1     
  147   68  163 1     
  148   68  164 1     
  149   69   70 1     
  150   69  165 1     
  151   69  166 1     
  152   70   71 1     
  153   70  167 1     
  154   70  168 1     
  155   71   72 1     
  156   71  169 1     
  157   71  170 1     
  158   72   73 1     
  159   72  171 1     
  160   72  172 1     
  161   73   81 1     
  162   73   74 1     
  163   73  173 1     
  164   74   75 1     
  165   75   76 1     
  166   75  174 1     
  167   75  175 1     
  168   76   81 1     
  169   76   77 1     
  170   76  176 1     
  171   77   78 am    
  172   77  177 1     
  173   78   79 2     
  174   78   80 am    
  175   80   81 1     
  176   80  178 1     
  177   81  179 1     
  178   82   83 ar    
  179   82   84 ar    
  180   85   86 ar    
  181   85   87 ar    
@<TRIPOS>SUBSTRUCTURE
      1 ****           1
@<TRIPOS>SET
DONOR_HYDROGENS      STATIC     ATOMS    <user>   **** ""
5 93 94 162 177 178
ATOM$RED        STATIC     ATOMS    COLORGROUP SYSTEM
5 93 94 162 177 178
