#       Name:                J72
#       Creating user name   gbret
#       Creation time:       Fri Sep  9 10:25:04 2016


#       File generated by GOLD software.
#

@<TRIPOS>MOLECULE
J72
    37    40     1
SMALL
NO_CHARGES


@<TRIPOS>ATOM
      1 O1           3.7991   3.4683   1.3517 O.3            1 <1>                0.0000
      2 N2           3.8183   2.0524   1.3439 N.2            1 <1>                0.0000
      3 C3           2.6995   1.3860   1.3510 C.2            1 <1>                0.0000
      4 C4           1.3188   1.9342   1.3606 C.2            1 <1>                0.0000
      5 O5           1.0147   3.1111   1.3630 O.2            1 <1>                0.0000
      6 N6           0.4661   0.8953   1.3657 N.am           1 <1>                0.0000
      7 C7          -0.9930   1.0262   1.3756 C.3            1 <1>                0.0000
      8 C8          -1.5028   1.0726  -0.0418 C.ar           1 <1>                0.0000
      9 C9          -1.8203   2.2853  -0.6220 C.ar           1 <1>                0.0000
     10 C10         -2.2879   2.3283  -1.9243 C.ar           1 <1>                0.0000
     11 F11         -2.5966   3.5148  -2.4919 F              1 <1>                0.0000
     12 C12         -2.4390   1.1562  -2.6454 C.ar           1 <1>                0.0000
     13 C13         -2.1239  -0.0588  -2.0667 C.ar           1 <1>                0.0000
     14 C14         -2.3004  -1.3299  -2.8585 C.3            1 <1>                0.0000
     15 O15         -1.5814  -2.3890  -2.2194 O.3            1 <1>                0.0000
     16 C16         -1.8396  -2.4731  -0.8128 C.3            1 <1>                0.0000
     17 O17         -1.3338  -1.2918  -0.1844 O.3            1 <1>                0.0000
     18 C18         -1.6477  -0.1027  -0.7656 C.ar           1 <1>                0.0000
     19 C19          1.1441  -0.3214   1.3604 C.ar           1 <1>                0.0000
     20 C20          0.6821  -1.6328   1.3632 C.ar           1 <1>                0.0000
     21 C21          1.5769  -2.6840   1.3569 C.ar           1 <1>                0.0000
     22 C22          2.9428  -2.4476   1.3479 C.ar           1 <1>                0.0000
     23 F23          3.8080  -3.4853   1.3414 F              1 <1>                0.0000
     24 C24          3.4197  -1.1496   1.3451 C.ar           1 <1>                0.0000
     25 C25          2.5242  -0.0862   1.3448 C.ar           1 <1>                0.0000
     26 H26          4.6770   3.8736   1.3455 H              1 <1>                0.0000
     27 H27         -1.4309   0.1717   1.8915 H              1 <1>                0.0000
     28 H28         -1.2719   1.9446   1.8923 H              1 <1>                0.0000
     29 H29         -1.7040   3.1999  -0.0595 H              1 <1>                0.0000
     30 H30         -2.8039   1.1913  -3.6613 H              1 <1>                0.0000
     31 H31         -3.3590  -1.5853  -2.9053 H              1 <1>                0.0000
     32 H32         -1.9153  -1.1861  -3.8680 H              1 <1>                0.0000
     33 H33         -2.9135  -2.5473  -0.6418 H              1 <1>                0.0000
     34 H34         -1.3394  -3.3495  -0.4008 H              1 <1>                0.0000
     35 H35         -0.3798  -1.8296   1.3706 H              1 <1>                0.0000
     36 H36          1.2095  -3.6996   1.3595 H              1 <1>                0.0000
     37 H37          4.4834  -0.9627   1.3384 H              1 <1>                0.0000
@<TRIPOS>BOND
    1    1    2 1     
    2    1   26 1     
    3    2    3 2     
    4    3   25 1     
    5    3    4 1     
    6    4    5 2     
    7    4    6 am    
    8    6    7 1     
    9    6   19 1     
   10    7    8 1     
   11    7   27 1     
   12    7   28 1     
   13    8   18 ar    
   14    8    9 ar    
   15    9   10 ar    
   16    9   29 1     
   17   10   11 1     
   18   10   12 ar    
   19   12   13 ar    
   20   12   30 1     
   21   13   18 ar    
   22   13   14 1     
   23   14   15 1     
   24   14   31 1     
   25   14   32 1     
   26   15   16 1     
   27   16   17 1     
   28   16   33 1     
   29   16   34 1     
   30   17   18 1     
   31   19   25 ar    
   32   19   20 ar    
   33   20   21 ar    
   34   20   35 1     
   35   21   22 ar    
   36   21   36 1     
   37   22   23 1     
   38   22   24 ar    
   39   24   25 ar    
   40   24   37 1     
@<TRIPOS>SUBSTRUCTURE
      1 ****           1
@<TRIPOS>SET
DONOR_HYDROGENS      STATIC     ATOMS    <user>   **** ""
1 26
ATOM$RED        STATIC     ATOMS    COLORGROUP SYSTEM
1 26
