#       Name:                J9Z
#       Creating user name   gbret
#       Creation time:       Fri Sep  9 10:26:28 2016


#       File generated by GOLD software.
#

@<TRIPOS>MOLECULE
J9Z
    42    44     1
SMALL
NO_CHARGES


@<TRIPOS>ATOM
      1 O1           3.4400  -1.6913  -3.8735 O.co2          1 <1>                0.0000
      2 P2           3.4187  -0.1248  -3.8649 P.3            1 <1>                0.0000
      3 O3           4.8885   0.4175  -3.8760 O.co2          1 <1>                0.0000
      4 O4           2.6610   0.3942  -5.1341 O.co2          1 <1>                0.0000
      5 O5           2.6651   0.3944  -2.5402 O.3            1 <1>                0.0000
      6 C6           3.1140   0.0877  -1.2187 C.3            1 <1>                0.0000
      7 C7           2.1749   0.7340  -0.1983 C.3            1 <1>                0.0000
      8 C8           2.0757   2.2354  -0.4758 C.3            1 <1>                0.0000
      9 C9           1.2501   2.8917   0.6007 C.ar           1 <1>                0.0000
     10 C10         -0.1195   3.0027   0.4502 C.ar           1 <1>                0.0000
     11 C11         -0.8768   3.6047   1.4376 C.ar           1 <1>                0.0000
     12 C12         -0.2645   4.0954   2.5756 C.ar           1 <1>                0.0000
     13 C13          1.1050   3.9836   2.7266 C.ar           1 <1>                0.0000
     14 C14          1.8618   3.3777   1.7411 C.ar           1 <1>                0.0000
     15 N15          0.8452   0.1285  -0.3063 N.am           1 <1>                0.0000
     16 C16          0.5687  -1.0128   0.3551 C.2            1 <1>                0.0000
     17 O17          1.4232  -1.5402   1.0417 O.2            1 <1>                0.0000
     18 C18         -0.7655  -1.6203   0.2467 C.2            1 <1>                0.0000
     19 C19         -1.1414  -2.7445   0.8647 C.2            1 <1>                0.0000
     20 C20         -2.4635  -3.1538   0.6272 C.ar           1 <1>                0.0000
     21 C21         -3.1465  -4.2869   1.1310 C.ar           1 <1>                0.0000
     22 C22         -4.4397  -4.5227   0.7855 C.ar           1 <1>                0.0000
     23 C23         -5.1153  -3.6579  -0.0671 C.ar           1 <1>                0.0000
     24 C24         -4.4798  -2.5493  -0.5721 C.ar           1 <1>                0.0000
     25 C25         -3.1490  -2.2852  -0.2312 C.ar           1 <1>                0.0000
     26 S26         -2.0859  -0.9654  -0.7057 S.3            1 <1>                0.0000
     27 H27          3.1158  -0.9931  -1.0773 H              1 <1>                0.0000
     28 H28          4.1236   0.4741  -1.0790 H              1 <1>                0.0000
     29 H29          2.5658   0.5753   0.8068 H              1 <1>                0.0000
     30 H30          3.0751   2.6703  -0.4831 H              1 <1>                0.0000
     31 H31          1.6027   2.3953  -1.4447 H              1 <1>                0.0000
     32 H32         -0.5979   2.6194  -0.4390 H              1 <1>                0.0000
     33 H33         -1.9468   3.6921   1.3197 H              1 <1>                0.0000
     34 H34         -0.8561   4.5664   3.3468 H              1 <1>                0.0000
     35 H35          1.5834   4.3672   3.6156 H              1 <1>                0.0000
     36 H36          2.9318   3.2903   1.8590 H              1 <1>                0.0000
     37 H37          0.1639   0.5491  -0.8538 H              1 <1>                0.0000
     38 H38         -0.4724  -3.3013   1.5042 H              1 <1>                0.0000
     39 H39         -2.6360  -4.9693   1.7944 H              1 <1>                0.0000
     40 H40         -4.9476  -5.3915   1.1775 H              1 <1>                0.0000
     41 H41         -6.1426  -3.8579  -0.3337 H              1 <1>                0.0000
     42 H42         -5.0090  -1.8804  -1.2346 H              1 <1>                0.0000
@<TRIPOS>BOND
    1    1    2 ar    
    2    2    3 ar    
    3    2    4 ar    
    4    2    5 1     
    5    5    6 1     
    6    6    7 1     
    7    6   27 1     
    8    6   28 1     
    9    7    8 1     
   10    7   15 1     
   11    7   29 1     
   12    8    9 1     
   13    8   30 1     
   14    8   31 1     
   15    9   14 ar    
   16    9   10 ar    
   17   10   11 ar    
   18   10   32 1     
   19   11   12 ar    
   20   11   33 1     
   21   12   13 ar    
   22   12   34 1     
   23   13   14 ar    
   24   13   35 1     
   25   14   36 1     
   26   15   16 am    
   27   15   37 1     
   28   16   17 2     
   29   16   18 1     
   30   18   26 1     
   31   18   19 2     
   32   19   20 1     
   33   19   38 1     
   34   20   25 ar    
   35   20   21 ar    
   36   21   22 ar    
   37   21   39 1     
   38   22   23 ar    
   39   22   40 1     
   40   23   24 ar    
   41   23   41 1     
   42   24   25 ar    
   43   24   42 1     
   44   25   26 1     
@<TRIPOS>SUBSTRUCTURE
      1 ****           1
@<TRIPOS>SET
DONOR_HYDROGENS      STATIC     ATOMS    <user>   **** ""
1 37
ATOM$RED        STATIC     ATOMS    COLORGROUP SYSTEM
1 37
