#       Name:                JDX
#       Creating user name   gbret
#       Creation time:       Fri Sep  9 10:28:56 2016


#       File generated by GOLD software.
#

@<TRIPOS>MOLECULE
JDX
    61    63     1
SMALL
NO_CHARGES


@<TRIPOS>ATOM
      1 C1          -2.6018   5.2162   6.3930 C.3            1 <1>                0.0000
      2 O2          -2.8850   3.8292   6.5885 O.3            1 <1>                0.0000
      3 C3          -2.5967   2.9896   5.5595 C.ar           1 <1>                0.0000
      4 C4          -2.0471   3.4896   4.3879 C.ar           1 <1>                0.0000
      5 C5          -1.7545   2.6340   3.3435 C.ar           1 <1>                0.0000
      6 C6          -2.0094   1.2805   3.4650 C.ar           1 <1>                0.0000
      7 C7          -1.6896   0.3494   2.3239 C.3            1 <1>                0.0000
      8 N8          -0.3180  -0.1450   2.4667 N.am           1 <1>                0.0000
      9 C9           0.1892  -0.9980   1.5548 C.2            1 <1>                0.0000
     10 O10         -0.4914  -1.3571   0.6139 O.2            1 <1>                0.0000
     11 C11          1.5734  -1.4970   1.6989 C.ar           1 <1>                0.0000
     12 C12          2.3558  -1.0911   2.7815 C.ar           1 <1>                0.0000
     13 C13          3.6463  -1.5607   2.9103 C.ar           1 <1>                0.0000
     14 C14          4.1660  -2.4319   1.9691 C.ar           1 <1>                0.0000
     15 C15          3.3960  -2.8381   0.8940 C.ar           1 <1>                0.0000
     16 C16          2.1017  -2.3803   0.7564 C.ar           1 <1>                0.0000
     17 C17          1.2643  -2.8237  -0.4154 C.3            1 <1>                0.0000
     18 N18          1.2618  -1.7722  -1.4412 N.4            1 <1>                0.0000
     19 H19          0.9526  -0.9035  -1.0316 H              1 <1>                0.0000
     20 C20          2.6202  -1.6057  -1.9751 C.3            1 <1>                0.0000
     21 C21          0.3511  -2.1520  -2.5295 C.3            1 <1>                0.0000
     22 C22          0.2228  -1.0063  -3.5000 C.ar           1 <1>                0.0000
     23 C23          0.7953   0.2123  -3.2084 C.ar           1 <1>                0.0000
     24 C24          0.6812   1.2694  -4.0969 C.ar           1 <1>                0.0000
     25 C25         -0.0069   1.1141  -5.2839 C.ar           1 <1>                0.0000
     26 C26         -0.5905  -0.1049  -5.5950 C.ar           1 <1>                0.0000
     27 O27         -1.2670  -0.2588  -6.7602 O.3            1 <1>                0.0000
     28 C28         -1.3400   0.8781  -7.6229 C.3            1 <1>                0.0000
     29 C29         -0.4727  -1.1801  -4.7008 C.ar           1 <1>                0.0000
     30 C30         -1.0869  -2.4789  -5.0194 C.2            1 <1>                0.0000
     31 O31         -1.7766  -2.5998  -6.0226 O.co2          1 <1>                0.0000
     32 O32         -0.9078  -3.4378  -4.2811 O.co2          1 <1>                0.0000
     33 C33         -2.5566   0.7796   4.6318 C.ar           1 <1>                0.0000
     34 C34         -2.8461   1.6303   5.6810 C.ar           1 <1>                0.0000
     35 H35         -1.5371   5.3458   6.1987 H              1 <1>                0.0000
     36 H36         -3.1741   5.5875   5.5428 H              1 <1>                0.0000
     37 H37         -2.8783   5.7732   7.2882 H              1 <1>                0.0000
     38 H38         -1.8486   4.5469   4.2922 H              1 <1>                0.0000
     39 H39         -1.3267   3.0227   2.4312 H              1 <1>                0.0000
     40 H40         -2.3823  -0.4921   2.3366 H              1 <1>                0.0000
     41 H41         -1.7862   0.8854   1.3797 H              1 <1>                0.0000
     42 H42          0.2251   0.1416   3.2176 H              1 <1>                0.0000
     43 H43          1.9516  -0.4106   3.5163 H              1 <1>                0.0000
     44 H44          4.2526  -1.2475   3.7474 H              1 <1>                0.0000
     45 H45          5.1773  -2.7962   2.0742 H              1 <1>                0.0000
     46 H46          3.8077  -3.5179   0.1627 H              1 <1>                0.0000
     47 H47          1.6819  -3.7392  -0.8346 H              1 <1>                0.0000
     48 H48          0.2431  -3.0092  -0.0827 H              1 <1>                0.0000
     49 H49          2.9696  -2.5546  -2.3819 H              1 <1>                0.0000
     50 H50          2.6109  -0.8535  -2.7640 H              1 <1>                0.0000
     51 H51          3.2881  -1.2852  -1.1755 H              1 <1>                0.0000
     52 H52          0.7485  -3.0246  -3.0480 H              1 <1>                0.0000
     53 H53         -0.6292  -2.3899  -2.1166 H              1 <1>                0.0000
     54 H54          1.3353   0.3444  -2.2825 H              1 <1>                0.0000
     55 H55          1.1331   2.2211  -3.8593 H              1 <1>                0.0000
     56 H56         -0.0911   1.9432  -5.9708 H              1 <1>                0.0000
     57 H57         -1.8355   1.6978  -7.1027 H              1 <1>                0.0000
     58 H58         -0.3331   1.1839  -7.9071 H              1 <1>                0.0000
     59 H59         -1.9072   0.6197  -8.5172 H              1 <1>                0.0000
     60 H60         -2.7544  -0.2781   4.7244 H              1 <1>                0.0000
     61 H61         -3.2736   1.2387   6.5922 H              1 <1>                0.0000
@<TRIPOS>BOND
    1    1    2 1     
    2    1   35 1     
    3    1   36 1     
    4    1   37 1     
    5    2    3 1     
    6    3   34 ar    
    7    3    4 ar    
    8    4    5 ar    
    9    4   38 1     
   10    5    6 ar    
   11    5   39 1     
   12    6    7 1     
   13    6   33 ar    
   14    7    8 1     
   15    7   40 1     
   16    7   41 1     
   17    8    9 am    
   18    8   42 1     
   19    9   10 2     
   20    9   11 1     
   21   11   16 ar    
   22   11   12 ar    
   23   12   13 ar    
   24   12   43 1     
   25   13   14 ar    
   26   13   44 1     
   27   14   15 ar    
   28   14   45 1     
   29   15   16 ar    
   30   15   46 1     
   31   16   17 1     
   32   17   18 1     
   33   17   47 1     
   34   17   48 1     
   35   18   19 1     
   36   18   20 1     
   37   18   21 1     
   38   20   49 1     
   39   20   50 1     
   40   20   51 1     
   41   21   22 1     
   42   21   52 1     
   43   21   53 1     
   44   22   29 ar    
   45   22   23 ar    
   46   23   24 ar    
   47   23   54 1     
   48   24   25 ar    
   49   24   55 1     
   50   25   26 ar    
   51   25   56 1     
   52   26   27 1     
   53   26   29 ar    
   54   27   28 1     
   55   28   57 1     
   56   28   58 1     
   57   28   59 1     
   58   29   30 1     
   59   30   31 ar    
   60   30   32 ar    
   61   33   34 ar    
   62   33   60 1     
   63   34   61 1     
@<TRIPOS>SUBSTRUCTURE
      1 ****           1
@<TRIPOS>SET
DONOR_HYDROGENS      STATIC     ATOMS    <user>   **** ""
2 42 19
ATOM$RED        STATIC     ATOMS    COLORGROUP SYSTEM
2 42 19
