#       Name:                JJ1
#       Creating user name   gbret
#       Creation time:       Fri Sep  9 10:31:22 2016


#       File generated by GOLD software.
#

@<TRIPOS>MOLECULE
JJ1
    89    89     1
SMALL
NO_CHARGES


@<TRIPOS>ATOM
      1 N1           3.4366  -0.1644  -4.8186 N.4            1 <1>                0.0000
      2 H2           3.4503  -1.1733  -4.8242 H              1 <1>                0.0000
      3 H3           4.3832   0.1849  -4.8258 H              1 <1>                0.0000
      4 H4           2.9486   0.1699  -5.6361 H              1 <1>                0.0000
      5 C5           2.7490   0.3094  -3.6100 C.3            1 <1>                0.0000
      6 C6           3.4890  -0.1975  -2.3705 C.3            1 <1>                0.0000
      7 C7           2.7729   0.2960  -1.1117 C.3            1 <1>                0.0000
      8 C8           3.5129  -0.2109   0.1278 C.3            1 <1>                0.0000
      9 C9           2.7967   0.2825   1.3866 C.3            1 <1>                0.0000
     10 N10          1.4633  -0.3201   1.4578 N.am           1 <1>                0.0000
     11 C11          0.4310   0.2485   0.8041 C.2            1 <1>                0.0000
     12 O12          0.6059   1.2592   0.1569 O.2            1 <1>                0.0000
     13 C13         -0.9406  -0.3715   0.8773 C.3            1 <1>                0.0000
     14 C14         -1.4042  -0.4134   2.3348 C.3            1 <1>                0.0000
     15 O15         -1.3424   0.9009   2.8923 O.3            1 <1>                0.0000
     16 N16         -1.8809   0.4286   0.0887 N.am           1 <1>                0.0000
     17 C17         -2.9926  -0.1419  -0.4164 C.2            1 <1>                0.0000
     18 O18         -3.2146  -1.3176  -0.2181 O.2            1 <1>                0.0000
     19 C19         -3.9598   0.6812  -1.2277 C.3            1 <1>                0.0000
     20 C20         -5.1266  -0.2002  -1.6781 C.3            1 <1>                0.0000
     21 C21         -6.1086   0.6354  -2.5018 C.3            1 <1>                0.0000
     22 C22         -7.2753  -0.2460  -2.9522 C.3            1 <1>                0.0000
     23 C23         -8.2573   0.5896  -3.7759 C.3            1 <1>                0.0000
     24 C24         -9.4240  -0.2917  -4.2263 C.3            1 <1>                0.0000
     25 C25        -10.4060   0.5439  -5.0500 C.3            1 <1>                0.0000
     26 C26        -11.5727  -0.3375  -5.5004 C.3            1 <1>                0.0000
     27 C27        -12.5547   0.4981  -6.3241 C.3            1 <1>                0.0000
     28 O28        -13.6444  -0.3251  -6.7448 O.3            1 <1>                0.0000
     29 C29          3.5920  -0.1121   2.6043 C.2            1 <1>                0.0000
     30 O30          3.0941  -0.8264   3.4485 O.2            1 <1>                0.0000
     31 N31          4.8567   0.3288   2.7552 N.am           1 <1>                0.0000
     32 C32          5.6298  -0.0548   3.9390 C.3            1 <1>                0.0000
     33 C33          7.0224   0.5746   3.8646 C.3            1 <1>                0.0000
     34 C34          7.8298   0.1740   5.1009 C.3            1 <1>                0.0000
     35 C35          8.0675  -1.3374   5.0870 C.3            1 <1>                0.0000
     36 C36          8.8750  -1.7380   6.3233 C.3            1 <1>                0.0000
     37 C37         10.2206  -1.0100   6.3115 C.3            1 <1>                0.0000
     38 C38          9.9829   0.5013   6.3254 C.3            1 <1>                0.0000
     39 C39          9.1755   0.9020   5.0891 C.3            1 <1>                0.0000
     40 H40          2.7342   1.3993  -3.6040 H              1 <1>                0.0000
     41 H41          1.7264  -0.0679  -3.6023 H              1 <1>                0.0000
     42 H42          3.5038  -1.2873  -2.3765 H              1 <1>                0.0000
     43 H43          4.5116   0.1798  -2.3782 H              1 <1>                0.0000
     44 H44          2.7581   1.3858  -1.1057 H              1 <1>                0.0000
     45 H45          1.7503  -0.0813  -1.1040 H              1 <1>                0.0000
     46 H46          3.5276  -1.3008   0.1218 H              1 <1>                0.0000
     47 H47          4.5355   0.1664   0.1201 H              1 <1>                0.0000
     48 H48          2.7034   1.3679   1.3497 H              1 <1>                0.0000
     49 H49          1.3235  -1.1285   1.9755 H              1 <1>                0.0000
     50 H50         -0.9029  -1.3853   0.4788 H              1 <1>                0.0000
     51 H51         -2.4300  -0.7792   2.3795 H              1 <1>                0.0000
     52 H52         -0.7557  -1.0801   2.9033 H              1 <1>                0.0000
     53 H53         -1.6228   0.9497   3.8165 H              1 <1>                0.0000
     54 H54         -1.7034   1.3689  -0.0699 H              1 <1>                0.0000
     55 H55         -4.3386   1.5019  -0.6185 H              1 <1>                0.0000
     56 H56         -3.4495   1.0836  -2.1027 H              1 <1>                0.0000
     57 H57         -4.7479  -1.0209  -2.2873 H              1 <1>                0.0000
     58 H58         -5.6369  -0.6027  -0.8031 H              1 <1>                0.0000
     59 H59         -6.4873   1.4561  -1.8926 H              1 <1>                0.0000
     60 H60         -5.5983   1.0378  -3.3768 H              1 <1>                0.0000
     61 H61         -6.8966  -1.0667  -3.5614 H              1 <1>                0.0000
     62 H62         -7.7856  -0.6484  -2.0772 H              1 <1>                0.0000
     63 H63         -8.6360   1.4103  -3.1667 H              1 <1>                0.0000
     64 H64         -7.7470   0.9921  -4.6509 H              1 <1>                0.0000
     65 H65         -9.0453  -1.1124  -4.8355 H              1 <1>                0.0000
     66 H66         -9.9343  -0.6942  -3.3513 H              1 <1>                0.0000
     67 H67        -10.7847   1.3646  -4.4408 H              1 <1>                0.0000
     68 H68         -9.8957   0.9463  -5.9250 H              1 <1>                0.0000
     69 H69        -11.1940  -1.1582  -6.1096 H              1 <1>                0.0000
     70 H70        -12.0830  -0.7399  -4.6254 H              1 <1>                0.0000
     71 H71        -12.9334   1.3188  -5.7149 H              1 <1>                0.0000
     72 H72        -12.0444   0.9006  -7.1991 H              1 <1>                0.0000
     73 H73        -14.3075   0.1400  -7.2730 H              1 <1>                0.0000
     74 H74          5.2549   0.9001   2.0800 H              1 <1>                0.0000
     75 H75          5.1196   0.2967   4.8358 H              1 <1>                0.0000
     76 H76          5.7232  -1.1402   3.9759 H              1 <1>                0.0000
     77 H77          7.5326   0.2231   2.9678 H              1 <1>                0.0000
     78 H78          6.9290   1.6600   3.8277 H              1 <1>                0.0000
     79 H79          7.2771   0.4466   5.9999 H              1 <1>                0.0000
     80 H80          7.1088  -1.8560   5.0954 H              1 <1>                0.0000
     81 H81          8.6202  -1.6100   4.1880 H              1 <1>                0.0000
     82 H82          8.3222  -1.4654   7.2224 H              1 <1>                0.0000
     83 H83          9.0443  -2.8148   6.3135 H              1 <1>                0.0000
     84 H84         10.7958  -1.2955   7.1923 H              1 <1>                0.0000
     85 H85         10.7733  -1.2827   5.4125 H              1 <1>                0.0000
     86 H86          9.4302   0.7740   7.2244 H              1 <1>                0.0000
     87 H87         10.9416   1.0200   6.3170 H              1 <1>                0.0000
     88 H88          9.7282   0.6293   4.1901 H              1 <1>                0.0000
     89 H89          9.0061   1.9787   5.0990 H              1 <1>                0.0000
@<TRIPOS>BOND
    1    1    2 1     
    2    1    3 1     
    3    1    4 1     
    4    1    5 1     
    5    5    6 1     
    6    5   40 1     
    7    5   41 1     
    8    6    7 1     
    9    6   42 1     
   10    6   43 1     
   11    7    8 1     
   12    7   44 1     
   13    7   45 1     
   14    8    9 1     
   15    8   46 1     
   16    8   47 1     
   17    9   10 1     
   18    9   29 1     
   19    9   48 1     
   20   10   11 am    
   21   10   49 1     
   22   11   12 2     
   23   11   13 1     
   24   13   14 1     
   25   13   16 1     
   26   13   50 1     
   27   14   15 1     
   28   14   51 1     
   29   14   52 1     
   30   15   53 1     
   31   16   17 am    
   32   16   54 1     
   33   17   18 2     
   34   17   19 1     
   35   19   20 1     
   36   19   55 1     
   37   19   56 1     
   38   20   21 1     
   39   20   57 1     
   40   20   58 1     
   41   21   22 1     
   42   21   59 1     
   43   21   60 1     
   44   22   23 1     
   45   22   61 1     
   46   22   62 1     
   47   23   24 1     
   48   23   63 1     
   49   23   64 1     
   50   24   25 1     
   51   24   65 1     
   52   24   66 1     
   53   25   26 1     
   54   25   67 1     
   55   25   68 1     
   56   26   27 1     
   57   26   69 1     
   58   26   70 1     
   59   27   28 1     
   60   27   71 1     
   61   27   72 1     
   62   28   73 1     
   63   29   30 2     
   64   29   31 am    
   65   31   32 1     
   66   31   74 1     
   67   32   33 1     
   68   32   75 1     
   69   32   76 1     
   70   33   34 1     
   71   33   77 1     
   72   33   78 1     
   73   34   39 1     
   74   34   35 1     
   75   34   79 1     
   76   35   36 1     
   77   35   80 1     
   78   35   81 1     
   79   36   37 1     
   80   36   82 1     
   81   36   83 1     
   82   37   38 1     
   83   37   84 1     
   84   37   85 1     
   85   38   39 1     
   86   38   86 1     
   87   38   87 1     
   88   39   88 1     
   89   39   89 1     
@<TRIPOS>SUBSTRUCTURE
      1 ****           1
@<TRIPOS>SET
DONOR_HYDROGENS      STATIC     ATOMS    <user>   **** ""
8 2 3 4 49 53 54 73 74
ATOM$RED        STATIC     ATOMS    COLORGROUP SYSTEM
8 2 3 4 49 53 54 73 74
