#       Name:                JJS
#       Creating user name   gbret
#       Creation time:       Fri Sep  9 10:31:57 2016


#       File generated by GOLD software.
#

@<TRIPOS>MOLECULE
JJS
    44    46     1
SMALL
NO_CHARGES


@<TRIPOS>ATOM
      1 C1           1.5492   2.5141  -2.4817 C.3            1 <1>                0.0000
      2 C2           1.7037   1.6618  -1.2485 C.2            1 <1>                0.0000
      3 O3           2.8041   1.4896  -0.7631 O.2            1 <1>                0.0000
      4 C4           0.5754   1.0665  -0.6602 C.2            1 <1>                0.0000
      5 C5           0.4343  -0.2812  -0.6197 C.2            1 <1>                0.0000
      6 C6           1.5059  -1.1577  -1.2152 C.3            1 <1>                0.0000
      7 N7          -0.6626  -0.8561  -0.0477 N.am           1 <1>                0.0000
      8 C8          -1.6631  -0.1595   0.5057 C.2            1 <1>                0.0000
      9 O9          -2.5999  -0.7624   0.9917 O.2            1 <1>                0.0000
     10 N10         -1.6663   1.1875   0.5423 N.am           1 <1>                0.0000
     11 C11         -0.5233   1.9082  -0.0433 C.3            1 <1>                0.0000
     12 C12          0.0856   2.7677   1.0345 C.ar           1 <1>                0.0000
     13 C13          0.4172   4.0888   0.7724 C.ar           1 <1>                0.0000
     14 C14          0.9742   4.8448   1.7902 C.ar           1 <1>                0.0000
     15 C15          1.1813   4.2547   3.0367 C.ar           1 <1>                0.0000
     16 N16          0.8495   2.9861   3.2458 N.ar           1 <1>                0.0000
     17 C17          0.3139   2.2477   2.2973 C.ar           1 <1>                0.0000
     18 C18          1.7568   5.0228   4.0994 C.1            1 <1>                0.0000
     19 N19          2.2134   5.6322   4.9425 N.1            1 <1>                0.0000
     20 C20         -0.7472  -2.2543  -0.0392 C.ar           1 <1>                0.0000
     21 C21         -0.0982  -2.9847   0.9477 C.ar           1 <1>                0.0000
     22 C22         -0.1835  -4.3630   0.9533 C.ar           1 <1>                0.0000
     23 C23         -0.9138  -5.0161  -0.0229 C.ar           1 <1>                0.0000
     24 C24         -1.5606  -4.2918  -1.0070 C.ar           1 <1>                0.0000
     25 C25         -1.4846  -2.9125  -1.0142 C.ar           1 <1>                0.0000
     26 C26         -2.3545  -5.0074  -2.0694 C.3            1 <1>                0.0000
     27 F27         -2.2885  -6.3876  -1.8505 F              1 <1>                0.0000
     28 F28         -3.6886  -4.5899  -2.0152 F              1 <1>                0.0000
     29 F29         -1.8233  -4.7091  -3.3288 F              1 <1>                0.0000
     30 H30          2.5107   2.9584  -2.7392 H              1 <1>                0.0000
     31 H31          1.2013   1.8960  -3.3093 H              1 <1>                0.0000
     32 H32          0.8239   3.3045  -2.2886 H              1 <1>                0.0000
     33 H33          2.2089  -1.4523  -0.4360 H              1 <1>                0.0000
     34 H34          1.0487  -2.0477  -1.6474 H              1 <1>                0.0000
     35 H35          2.0352  -0.6069  -1.9927 H              1 <1>                0.0000
     36 H36         -2.4025   1.6712   0.9484 H              1 <1>                0.0000
     37 H37         -0.9058   2.5703  -0.8201 H              1 <1>                0.0000
     38 H38          0.2451   4.5180  -0.2036 H              1 <1>                0.0000
     39 H39          1.2448   5.8766   1.6209 H              1 <1>                0.0000
     40 H40          0.0569   1.2193   2.5041 H              1 <1>                0.0000
     41 H41          0.4728  -2.4754   1.7099 H              1 <1>                0.0000
     42 H42          0.3209  -4.9316   1.7206 H              1 <1>                0.0000
     43 H43         -0.9787  -6.0941  -0.0166 H              1 <1>                0.0000
     44 H44         -1.9901  -2.3473  -1.7832 H              1 <1>                0.0000
@<TRIPOS>BOND
    1    1    2 1     
    2    1   30 1     
    3    1   31 1     
    4    1   32 1     
    5    2    3 2     
    6    2    4 1     
    7    4   11 1     
    8    4    5 2     
    9    5    6 1     
   10    5    7 1     
   11    6   33 1     
   12    6   34 1     
   13    6   35 1     
   14    7    8 am    
   15    7   20 1     
   16    8    9 2     
   17    8   10 am    
   18   10   11 1     
   19   10   36 1     
   20   11   12 1     
   21   11   37 1     
   22   12   17 ar    
   23   12   13 ar    
   24   13   14 ar    
   25   13   38 1     
   26   14   15 ar    
   27   14   39 1     
   28   15   16 ar    
   29   15   18 1     
   30   16   17 ar    
   31   17   40 1     
   32   18   19 3     
   33   20   25 ar    
   34   20   21 ar    
   35   21   22 ar    
   36   21   41 1     
   37   22   23 ar    
   38   22   42 1     
   39   23   24 ar    
   40   23   43 1     
   41   24   25 ar    
   42   24   26 1     
   43   25   44 1     
   44   26   27 1     
   45   26   28 1     
   46   26   29 1     
@<TRIPOS>SUBSTRUCTURE
      1 ****           1
@<TRIPOS>SET
DONOR_HYDROGENS      STATIC     ATOMS    <user>   **** ""
1 36
ATOM$RED        STATIC     ATOMS    COLORGROUP SYSTEM
1 36
