#       Name:                JP1
#       Creating user name   gbret
#       Creation time:       Fri Sep  9 10:35:09 2016


#       File generated by GOLD software.
#

@<TRIPOS>MOLECULE
JP1
    41    43     1
SMALL
NO_CHARGES


@<TRIPOS>ATOM
      1 O1          -1.9472   2.1970  -3.5800 O.3            1 <1>                0.0000
      2 C2          -1.1049   1.6016  -4.4661 C.ar           1 <1>                0.0000
      3 C3          -1.6104   0.9975  -5.6060 C.ar           1 <1>                0.0000
      4 C4          -0.7520   0.3927  -6.5067 C.ar           1 <1>                0.0000
      5 Cl5         -1.3869  -0.3638  -7.9344 Cl             1 <1>                0.0000
      6 C6           0.6116   0.3899  -6.2720 C.ar           1 <1>                0.0000
      7 C7           1.1216   0.9910  -5.1365 C.ar           1 <1>                0.0000
      8 C8           0.2672   1.6028  -4.2329 C.ar           1 <1>                0.0000
      9 O9           0.7677   2.1948  -3.1157 O.3            1 <1>                0.0000
     10 C10          0.7674   1.4794  -1.9594 C.ar           1 <1>                0.0000
     11 C11          0.3959   0.1429  -1.9710 C.ar           1 <1>                0.0000
     12 C12          0.3953  -0.5843  -0.7971 C.ar           1 <1>                0.0000
     13 C13          0.7663   0.0221   0.3957 C.ar           1 <1>                0.0000
     14 N14          0.7657  -0.7159   1.5870 N.am           1 <1>                0.0000
     15 C15          0.5496  -0.0957   2.7639 C.2            1 <1>                0.0000
     16 O16          0.5288   1.1189   2.8162 O.2            1 <1>                0.0000
     17 N17          0.3566  -0.8217   3.8828 N.am           1 <1>                0.0000
     18 C18          0.4904  -2.2871   3.8675 C.3            1 <1>                0.0000
     19 C19         -0.7607  -2.8936   4.5131 C.3            1 <1>                0.0000
     20 O20         -0.9711  -2.2887   5.7912 O.3            1 <1>                0.0000
     21 C21         -1.2212  -0.8821   5.7390 C.3            1 <1>                0.0000
     22 C22          0.0118  -0.1720   5.1573 C.3            1 <1>                0.0000
     23 C23          1.1382   1.3595   0.4078 C.ar           1 <1>                0.0000
     24 C24          1.1444   2.0851  -0.7684 C.ar           1 <1>                0.0000
     25 Cl25         1.6094   3.7576  -0.7542 Cl             1 <1>                0.0000
     26 H26         -2.1164   3.1310  -3.7648 H              1 <1>                0.0000
     27 H27         -2.6744   0.9985  -5.7912 H              1 <1>                0.0000
     28 H28          1.2788  -0.0832  -6.9772 H              1 <1>                0.0000
     29 H29          2.1863   0.9875  -4.9556 H              1 <1>                0.0000
     30 H30          0.1066  -0.3290  -2.8984 H              1 <1>                0.0000
     31 H31          0.1059  -1.6248  -0.8066 H              1 <1>                0.0000
     32 H32          0.9208  -1.6732   1.5646 H              1 <1>                0.0000
     33 H33          0.5790  -2.6369   2.8389 H              1 <1>                0.0000
     34 H34          1.3746  -2.5809   4.4331 H              1 <1>                0.0000
     35 H35         -1.6254  -2.7085   3.8759 H              1 <1>                0.0000
     36 H36         -0.6221  -3.9677   4.6371 H              1 <1>                0.0000
     37 H37         -2.0876  -0.6896   5.1062 H              1 <1>                0.0000
     38 H38         -1.4140  -0.5089   6.7448 H              1 <1>                0.0000
     39 H39          0.8455  -0.2538   5.8547 H              1 <1>                0.0000
     40 H40         -0.2186   0.8787   4.9815 H              1 <1>                0.0000
     41 H41          1.4265   1.8317   1.3353 H              1 <1>                0.0000
@<TRIPOS>BOND
    1    1    2 1     
    2    1   26 1     
    3    2    8 ar    
    4    2    3 ar    
    5    3    4 ar    
    6    3   27 1     
    7    4    5 1     
    8    4    6 ar    
    9    6    7 ar    
   10    6   28 1     
   11    7    8 ar    
   12    7   29 1     
   13    8    9 1     
   14    9   10 1     
   15   10   24 ar    
   16   10   11 ar    
   17   11   12 ar    
   18   11   30 1     
   19   12   13 ar    
   20   12   31 1     
   21   13   14 1     
   22   13   23 ar    
   23   14   15 am    
   24   14   32 1     
   25   15   16 2     
   26   15   17 am    
   27   17   22 1     
   28   17   18 1     
   29   18   19 1     
   30   18   33 1     
   31   18   34 1     
   32   19   20 1     
   33   19   35 1     
   34   19   36 1     
   35   20   21 1     
   36   21   22 1     
   37   21   37 1     
   38   21   38 1     
   39   22   39 1     
   40   22   40 1     
   41   23   24 ar    
   42   23   41 1     
   43   24   25 1     
@<TRIPOS>SUBSTRUCTURE
      1 ****           1
@<TRIPOS>SET
DONOR_HYDROGENS      STATIC     ATOMS    <user>   **** ""
2 26 32
ATOM$RED        STATIC     ATOMS    COLORGROUP SYSTEM
2 26 32
