#       Name:                JVE
#       Creating user name   gbret
#       Creation time:       Fri Sep  9 10:38:50 2016


#       File generated by GOLD software.
#

@<TRIPOS>MOLECULE
JVE
    35    38     1
SMALL
NO_CHARGES


@<TRIPOS>ATOM
      1 F1          -2.6623  -2.1940  -0.5633 F              1 <1>                0.0000
      2 C2          -2.6806  -0.8431  -0.5559 C.ar           1 <1>                0.0000
      3 C3          -3.8888  -0.1666  -0.5349 C.ar           1 <1>                0.0000
      4 C4          -3.9063   1.2150  -0.5274 C.ar           1 <1>                0.0000
      5 C5          -2.7182   1.9221  -0.5412 C.ar           1 <1>                0.0000
      6 C6          -1.5117   1.2479  -0.5621 C.ar           1 <1>                0.0000
      7 C7          -1.4916  -0.1341  -0.5634 C.ar           1 <1>                0.0000
      8 C8          -0.1761  -0.8689  -0.5862 C.3            1 <1>                0.0000
      9 C9           0.5833  -0.4968  -1.8290 C.2            1 <1>                0.0000
     10 C10          0.3728  -0.8446  -3.1071 C.2            1 <1>                0.0000
     11 N11          1.3277  -0.2490  -3.8591 N.pl3          1 <1>                0.0000
     12 H12          1.4220  -0.3218  -4.8217 H              1 <1>                0.0000
     13 N13          2.1579   0.4935  -3.0034 N.2            1 <1>                0.0000
     14 C14          1.7181   0.3470  -1.7894 C.2            1 <1>                0.0000
     15 N15          2.1842   0.8646  -0.5759 N.pl3          1 <1>                0.0000
     16 C16          1.7097   0.3197   0.5887 C.2            1 <1>                0.0000
     17 C17          0.6312  -0.4929   0.6345 C.2            1 <1>                0.0000
     18 C18          0.2179  -1.0332   1.8686 C.2            1 <1>                0.0000
     19 O19         -0.7558  -1.7593   1.9126 O.2            1 <1>                0.0000
     20 C20          0.9720  -0.7193   3.1319 C.3            1 <1>                0.0000
     21 N21          2.3801  -0.4593   2.7995 N.4            1 <1>                0.0000
     22 H22          2.8891  -0.2308   3.6402 H              1 <1>                0.0000
     23 H23          2.7835  -1.2798   2.3727 H              1 <1>                0.0000
     24 C24          2.4471   0.6681   1.8627 C.3            1 <1>                0.0000
     25 H25         -4.8170  -0.7187  -0.5248 H              1 <1>                0.0000
     26 H26         -4.8484   1.7428  -0.5111 H              1 <1>                0.0000
     27 H27         -2.7328   3.0020  -0.5360 H              1 <1>                0.0000
     28 H28         -0.5843   1.8013  -0.5732 H              1 <1>                0.0000
     29 H29         -0.3604  -1.9432  -0.5824 H              1 <1>                0.0000
     30 H30         -0.4167  -1.4855  -3.4709 H              1 <1>                0.0000
     31 H31          2.8273   1.5906  -0.5593 H              1 <1>                0.0000
     32 H32          0.5401   0.1630   3.6044 H              1 <1>                0.0000
     33 H33          0.9091  -1.5671   3.8141 H              1 <1>                0.0000
     34 H34          3.4898   0.8845   1.6302 H              1 <1>                0.0000
     35 H35          1.9888   1.5457   2.3185 H              1 <1>                0.0000
@<TRIPOS>BOND
    1    1    2 1     
    2    2    7 ar    
    3    2    3 ar    
    4    3    4 ar    
    5    3   25 1     
    6    4    5 ar    
    7    4   26 1     
    8    5    6 ar    
    9    5   27 1     
   10    6    7 ar    
   11    6   28 1     
   12    7    8 1     
   13    8   17 1     
   14    8    9 1     
   15    8   29 1     
   16    9   14 1     
   17    9   10 2     
   18   10   11 1     
   19   10   30 1     
   20   11   12 1     
   21   11   13 1     
   22   13   14 2     
   23   14   15 1     
   24   15   16 1     
   25   15   31 1     
   26   16   24 1     
   27   16   17 2     
   28   17   18 1     
   29   18   19 2     
   30   18   20 1     
   31   20   21 1     
   32   20   32 1     
   33   20   33 1     
   34   21   22 1     
   35   21   23 1     
   36   21   24 1     
   37   24   34 1     
   38   24   35 1     
@<TRIPOS>SUBSTRUCTURE
      1 ****           1
@<TRIPOS>SET
DONOR_HYDROGENS      STATIC     ATOMS    <user>   **** ""
4 12 31 22 23
ATOM$RED        STATIC     ATOMS    COLORGROUP SYSTEM
4 12 31 22 23
