#       Name:                JXM
#       Creating user name   gbret
#       Creation time:       Fri Sep  9 10:39:18 2016


#       File generated by GOLD software.
#

@<TRIPOS>MOLECULE
JXM
    53    56     1
SMALL
NO_CHARGES


@<TRIPOS>ATOM
      1 O1           0.5096  -1.1831  -0.0225 O.3            1 <1>                0.0000
      2 C2           1.6924  -0.3853   0.0586 C.3            1 <1>                0.0000
      3 C3           1.3203   1.0931  -0.0708 C.3            1 <1>                0.0000
      4 N4           0.8108   1.3531  -1.4238 N.3            1 <1>                0.0000
      5 C5           1.8136   1.0156  -2.4361 C.3            1 <1>                0.0000
      6 C6           1.2067   1.2897  -3.8198 C.3            1 <1>                0.0000
      7 C7           0.0582   0.2986  -4.0215 C.3            1 <1>                0.0000
      8 N8          -0.8072   0.2894  -2.8378 N.am           1 <1>                0.0000
      9 C9          -0.3919   0.7300  -1.6234 C.2            1 <1>                0.0000
     10 N10         -1.1714   0.5958  -0.5588 N.2            1 <1>                0.0000
     11 C11         -2.4004   0.0843  -0.6412 C.2            1 <1>                0.0000
     12 C12         -2.8939  -0.3156  -1.8750 C.2            1 <1>                0.0000
     13 C13         -2.0641  -0.1947  -2.9906 C.2            1 <1>                0.0000
     14 O14         -2.4670  -0.5228  -4.0955 O.2            1 <1>                0.0000
     15 N15         -3.1764  -0.0460   0.4930 N.3            1 <1>                0.0000
     16 C16         -3.4787  -1.4587   0.7650 C.3            1 <1>                0.0000
     17 C17         -4.3880  -1.5531   1.9931 C.3            1 <1>                0.0000
     18 O18         -3.7511  -0.9125   3.1019 O.3            1 <1>                0.0000
     19 C19         -3.4428   0.4649   2.8716 C.3            1 <1>                0.0000
     20 C20         -2.5240   0.5797   1.6524 C.3            1 <1>                0.0000
     21 C21          3.0594   1.8813  -2.2378 C.3            1 <1>                0.0000
     22 F22          3.6697   1.5491  -1.0235 F              1 <1>                0.0000
     23 F23          3.9562   1.6554  -3.2875 F              1 <1>                0.0000
     24 F24          2.6916   3.2310  -2.2209 F              1 <1>                0.0000
     25 C25          2.3661  -0.6194   1.3861 C.ar           1 <1>                0.0000
     26 C26          1.6044  -0.8021   2.5251 C.ar           1 <1>                0.0000
     27 C27          2.2224  -1.0168   3.7429 C.ar           1 <1>                0.0000
     28 C28          3.6022  -1.0493   3.8215 C.ar           1 <1>                0.0000
     29 C29          4.3639  -0.8675   2.6823 C.ar           1 <1>                0.0000
     30 C30          3.7458  -0.6571   1.4639 C.ar           1 <1>                0.0000
     31 H31         -0.1420  -0.9915   0.6659 H              1 <1>                0.0000
     32 H32          2.3724  -0.6608  -0.7475 H              1 <1>                0.0000
     33 H33          0.5508   1.3394   0.6608 H              1 <1>                0.0000
     34 H34          2.2028   1.7070   0.1094 H              1 <1>                0.0000
     35 H35          2.0799  -0.0381  -2.3532 H              1 <1>                0.0000
     36 H36          0.8268   2.3104  -3.8620 H              1 <1>                0.0000
     37 H37          1.9625   1.1427  -4.5913 H              1 <1>                0.0000
     38 H38         -0.5250   0.5930  -4.8940 H              1 <1>                0.0000
     39 H39          0.4653  -0.7000  -4.1800 H              1 <1>                0.0000
     40 H40         -3.8946  -0.7108  -1.9695 H              1 <1>                0.0000
     41 H41         -3.9842  -1.8952  -0.0965 H              1 <1>                0.0000
     42 H42         -2.5516  -1.9991   0.9562 H              1 <1>                0.0000
     43 H43         -5.3364  -1.0587   1.7827 H              1 <1>                0.0000
     44 H44         -4.5684  -2.6010   2.2327 H              1 <1>                0.0000
     45 H45         -4.3637   1.0180   2.6867 H              1 <1>                0.0000
     46 H46         -2.9397   0.8765   3.7465 H              1 <1>                0.0000
     47 H47         -1.5816   0.0719   1.8577 H              1 <1>                0.0000
     48 H48         -2.3325   1.6313   1.4386 H              1 <1>                0.0000
     49 H49          0.5265  -0.7767   2.4637 H              1 <1>                0.0000
     50 H50          1.6273  -1.1588   4.6328 H              1 <1>                0.0000
     51 H51          4.0850  -1.2164   4.7730 H              1 <1>                0.0000
     52 H52          5.4418  -0.8926   2.7439 H              1 <1>                0.0000
     53 H53          4.3409  -0.5151   0.5739 H              1 <1>                0.0000
@<TRIPOS>BOND
    1    1    2 1     
    2    1   31 1     
    3    2    3 1     
    4    2   25 1     
    5    2   32 1     
    6    3    4 1     
    7    3   33 1     
    8    3   34 1     
    9    4    9 1     
   10    4    5 1     
   11    5    6 1     
   12    5   21 1     
   13    5   35 1     
   14    6    7 1     
   15    6   36 1     
   16    6   37 1     
   17    7    8 1     
   18    7   38 1     
   19    7   39 1     
   20    8   13 am    
   21    8    9 1     
   22    9   10 2     
   23   10   11 1     
   24   11   12 2     
   25   11   15 1     
   26   12   13 1     
   27   12   40 1     
   28   13   14 2     
   29   15   20 1     
   30   15   16 1     
   31   16   17 1     
   32   16   41 1     
   33   16   42 1     
   34   17   18 1     
   35   17   43 1     
   36   17   44 1     
   37   18   19 1     
   38   19   20 1     
   39   19   45 1     
   40   19   46 1     
   41   20   47 1     
   42   20   48 1     
   43   21   22 1     
   44   21   23 1     
   45   21   24 1     
   46   25   30 ar    
   47   25   26 ar    
   48   26   27 ar    
   49   26   49 1     
   50   27   28 ar    
   51   27   50 1     
   52   28   29 ar    
   53   28   51 1     
   54   29   30 ar    
   55   29   52 1     
   56   30   53 1     
@<TRIPOS>SUBSTRUCTURE
      1 ****           1
@<TRIPOS>SET
DONOR_HYDROGENS      STATIC     ATOMS    <user>   **** ""
1 31
ATOM$RED        STATIC     ATOMS    COLORGROUP SYSTEM
1 31
