#       Name:                K01
#       Creating user name   gbret
#       Creation time:       Fri Sep  9 10:42:10 2016


#       File generated by GOLD software.
#

@<TRIPOS>MOLECULE
K01
    46    48     1
SMALL
NO_CHARGES


@<TRIPOS>ATOM
      1 C1          -2.0545   3.2008  -2.2897 C.3            1 <1>                0.0000
      2 C2          -2.0337   1.6709  -2.2981 C.3            1 <1>                0.0000
      3 N3          -1.3252   1.1856  -1.1112 N.am           1 <1>                0.0000
      4 C4          -2.0634   0.9246   0.1270 C.3            1 <1>                0.0000
      5 C5          -2.5464  -0.5271   0.1364 C.3            1 <1>                0.0000
      6 C6           0.0059   0.9793  -1.1584 C.2            1 <1>                0.0000
      7 O7           0.6192   1.1961  -2.1871 O.2            1 <1>                0.0000
      8 C8           0.7149   0.4937   0.0292 C.2            1 <1>                0.0000
      9 C9           0.9043  -0.8328   0.3009 C.2            1 <1>                0.0000
     10 N10          0.4577  -1.8720  -0.4988 N.am           1 <1>                0.0000
     11 C11          0.6970  -3.1490  -0.1403 C.2            1 <1>                0.0000
     12 O12          1.3055  -3.3891   0.8861 O.2            1 <1>                0.0000
     13 C13          0.2246  -4.2481  -0.9860 C.2            1 <1>                0.0000
     14 C14          0.3997  -5.5790  -0.7280 C.2            1 <1>                0.0000
     15 C15         -0.1464  -6.3955  -1.6896 C.2            1 <1>                0.0000
     16 C16         -0.7482  -5.7581  -2.7007 C.2            1 <1>                0.0000
     17 S17         -0.6651  -4.0668  -2.4918 S.3            1 <1>                0.0000
     18 S18          1.7642  -1.0324   1.7565 S.3            1 <1>                0.0000
     19 C19          1.8815   0.6993   2.0228 C.2            1 <1>                0.0000
     20 C20          2.5642   1.3501   3.2105 C.3            1 <1>                0.0000
     21 C21          2.8211   2.8237   2.8838 C.3            1 <1>                0.0000
     22 C22          1.5256   3.4532   2.3629 C.3            1 <1>                0.0000
     23 C23          1.2170   2.8914   0.9733 C.3            1 <1>                0.0000
     24 C24          1.2905   1.3738   1.0297 C.2            1 <1>                0.0000
     25 H25         -1.0319   3.5781  -2.2974 H              1 <1>                0.0000
     26 H26         -2.5817   3.5618  -3.1727 H              1 <1>                0.0000
     27 H27         -2.5647   3.5523  -1.3929 H              1 <1>                0.0000
     28 H28         -3.0563   1.2936  -2.2903 H              1 <1>                0.0000
     29 H29         -1.5235   1.3194  -3.1949 H              1 <1>                0.0000
     30 H30         -1.4101   1.0958   0.9825 H              1 <1>                0.0000
     31 H31         -2.9220   1.5935   0.1859 H              1 <1>                0.0000
     32 H32         -1.6878  -1.1961   0.0774 H              1 <1>                0.0000
     33 H33         -3.0956  -0.7213   1.0576 H              1 <1>                0.0000
     34 H34         -3.1997  -0.6983  -0.7191 H              1 <1>                0.0000
     35 H35         -0.0273  -1.6806  -1.3167 H              1 <1>                0.0000
     36 H36          0.9157  -5.9518   0.1444 H              1 <1>                0.0000
     37 H37         -0.0933  -7.4728  -1.6333 H              1 <1>                0.0000
     38 H38         -1.2263  -6.2489  -3.5356 H              1 <1>                0.0000
     39 H39          1.9207   1.2769   4.0872 H              1 <1>                0.0000
     40 H40          3.5119   0.8488   3.4072 H              1 <1>                0.0000
     41 H41          3.1439   3.3459   3.7844 H              1 <1>                0.0000
     42 H42          3.5954   2.8983   2.1202 H              1 <1>                0.0000
     43 H43          0.7066   3.2157   3.0419 H              1 <1>                0.0000
     44 H44          1.6458   4.5347   2.3001 H              1 <1>                0.0000
     45 H45          0.2174   3.2005   0.6679 H              1 <1>                0.0000
     46 H46          1.9510   3.2623   0.2580 H              1 <1>                0.0000
@<TRIPOS>BOND
    1    1    2 1     
    2    1   25 1     
    3    1   26 1     
    4    1   27 1     
    5    2    3 1     
    6    2   28 1     
    7    2   29 1     
    8    3    4 1     
    9    3    6 am    
   10    4    5 1     
   11    4   30 1     
   12    4   31 1     
   13    5   32 1     
   14    5   33 1     
   15    5   34 1     
   16    6    7 2     
   17    6    8 1     
   18    8   24 1     
   19    8    9 2     
   20    9   10 1     
   21    9   18 1     
   22   10   11 am    
   23   10   35 1     
   24   11   12 2     
   25   11   13 1     
   26   13   17 1     
   27   13   14 2     
   28   14   15 1     
   29   14   36 1     
   30   15   16 2     
   31   15   37 1     
   32   16   17 1     
   33   16   38 1     
   34   18   19 1     
   35   19   24 2     
   36   19   20 1     
   37   20   21 1     
   38   20   39 1     
   39   20   40 1     
   40   21   22 1     
   41   21   41 1     
   42   21   42 1     
   43   22   23 1     
   44   22   43 1     
   45   22   44 1     
   46   23   24 1     
   47   23   45 1     
   48   23   46 1     
@<TRIPOS>SUBSTRUCTURE
      1 ****           1
@<TRIPOS>SET
DONOR_HYDROGENS      STATIC     ATOMS    <user>   **** ""
1 35
ATOM$RED        STATIC     ATOMS    COLORGROUP SYSTEM
1 35
