#       Name:                K12
#       Creating user name   gbret
#       Creation time:       Fri Sep  9 10:42:51 2016


#       File generated by GOLD software.
#

@<TRIPOS>MOLECULE
K12
    43    42     1
SMALL
NO_CHARGES


@<TRIPOS>ATOM
      1 O1           4.6647   7.4137  -0.0047 O.3            1 <1>                0.0000
      2 C2           4.6841   5.9848  -0.0126 C.3            1 <1>                0.0000
      3 C3           3.2487   5.4553  -0.0017 C.3            1 <1>                0.0000
      4 C4           3.2694   3.9254  -0.0101 C.3            1 <1>                0.0000
      5 C5           1.8341   3.3958   0.0007 C.3            1 <1>                0.0000
      6 C6           1.8548   1.8660  -0.0077 C.3            1 <1>                0.0000
      7 C7           0.4194   1.3364   0.0032 C.3            1 <1>                0.0000
      8 C8           0.4402  -0.1934  -0.0052 C.3            1 <1>                0.0000
      9 C9          -0.9952  -0.7230   0.0056 C.3            1 <1>                0.0000
     10 C10         -0.9745  -2.2528  -0.0028 C.3            1 <1>                0.0000
     11 C11         -2.4098  -2.7824   0.0081 C.3            1 <1>                0.0000
     12 C12         -2.3891  -4.3123  -0.0003 C.3            1 <1>                0.0000
     13 C13         -3.8245  -4.8418   0.0105 C.3            1 <1>                0.0000
     14 O14         -3.8051  -6.2707   0.0027 O.3            1 <1>                0.0000
     15 P15         -5.1433  -7.1658   0.0106 P.3            1 <1>                0.0000
     16 O16         -5.9372  -6.9302  -1.3193 O.co2          1 <1>                0.0000
     17 O17         -4.7581  -8.6799   0.1276 O.co2          1 <1>                0.0000
     18 O18         -6.0368  -6.7585   1.2314 O.co2          1 <1>                0.0000
     19 H19          5.5426   7.8190  -0.0109 H              1 <1>                0.0000
     20 H20          5.1943   5.6333  -0.9094 H              1 <1>                0.0000
     21 H21          5.2113   5.6238   0.8705 H              1 <1>                0.0000
     22 H22          2.7385   5.8068   0.8951 H              1 <1>                0.0000
     23 H23          2.7215   5.8163  -0.8848 H              1 <1>                0.0000
     24 H24          3.7796   3.5739  -0.9069 H              1 <1>                0.0000
     25 H25          3.7966   3.5643   0.8729 H              1 <1>                0.0000
     26 H26          1.3239   3.7474   0.8975 H              1 <1>                0.0000
     27 H27          1.3069   3.7569  -0.8823 H              1 <1>                0.0000
     28 H28          2.3650   1.5145  -0.9045 H              1 <1>                0.0000
     29 H29          2.3820   1.5049   0.8754 H              1 <1>                0.0000
     30 H30         -0.0908   1.6879   0.9000 H              1 <1>                0.0000
     31 H31         -0.1078   1.6975  -0.8799 H              1 <1>                0.0000
     32 H32          0.9504  -0.5449  -0.9020 H              1 <1>                0.0000
     33 H33          0.9674  -0.5545   0.8778 H              1 <1>                0.0000
     34 H34         -1.5054  -0.3715   0.9024 H              1 <1>                0.0000
     35 H35         -1.5224  -0.3619  -0.8774 H              1 <1>                0.0000
     36 H36         -0.4643  -2.6044  -0.8996 H              1 <1>                0.0000
     37 H37         -0.4473  -2.6139   0.8803 H              1 <1>                0.0000
     38 H38         -2.9200  -2.4309   0.9049 H              1 <1>                0.0000
     39 H39         -2.9370  -2.4213  -0.8750 H              1 <1>                0.0000
     40 H40         -1.8789  -4.6638  -0.8971 H              1 <1>                0.0000
     41 H41         -1.8619  -4.6733   0.8827 H              1 <1>                0.0000
     42 H42         -4.3347  -4.4903   0.9073 H              1 <1>                0.0000
     43 H43         -4.3517  -4.4808  -0.8725 H              1 <1>                0.0000
@<TRIPOS>BOND
    1    1    2 1     
    2    1   19 1     
    3    2    3 1     
    4    2   20 1     
    5    2   21 1     
    6    3    4 1     
    7    3   22 1     
    8    3   23 1     
    9    4    5 1     
   10    4   24 1     
   11    4   25 1     
   12    5    6 1     
   13    5   26 1     
   14    5   27 1     
   15    6    7 1     
   16    6   28 1     
   17    6   29 1     
   18    7    8 1     
   19    7   30 1     
   20    7   31 1     
   21    8    9 1     
   22    8   32 1     
   23    8   33 1     
   24    9   10 1     
   25    9   34 1     
   26    9   35 1     
   27   10   11 1     
   28   10   36 1     
   29   10   37 1     
   30   11   12 1     
   31   11   38 1     
   32   11   39 1     
   33   12   13 1     
   34   12   40 1     
   35   12   41 1     
   36   13   14 1     
   37   13   42 1     
   38   13   43 1     
   39   14   15 1     
   40   15   16 ar    
   41   15   17 ar    
   42   15   18 ar    
@<TRIPOS>SUBSTRUCTURE
      1 ****           1
@<TRIPOS>SET
DONOR_HYDROGENS      STATIC     ATOMS    <user>   **** ""
1 19
ATOM$RED        STATIC     ATOMS    COLORGROUP SYSTEM
1 19
