#       Name:                K22
#       Creating user name   gbret
#       Creation time:       Fri Sep  9 10:43:38 2016


#       File generated by GOLD software.
#

@<TRIPOS>MOLECULE
K22
    16    17     1
SMALL
NO_CHARGES


@<TRIPOS>ATOM
      1 Br1         -0.3584  -4.0060  -0.0180 Br             1 <1>                0.0000
      2 C2          -0.3841  -2.1152  -0.0076 C.ar           1 <1>                0.0000
      3 C3          -1.5949  -1.4413   0.0134 C.ar           1 <1>                0.0000
      4 Br4         -3.2152  -2.4162   0.0314 Br             1 <1>                0.0000
      5 C5          -1.6228  -0.0591   0.0215 C.ar           1 <1>                0.0000
      6 Br6         -3.2778   0.8551   0.0514 Br             1 <1>                0.0000
      7 C7          -0.4336   0.6558   0.0083 C.ar           1 <1>                0.0000
      8 N8          -0.1370   2.0170   0.0116 N.am           1 <1>                0.0000
      9 H9          -0.7846   2.7391   0.0254 H              1 <1>                0.0000
     10 C10          1.2016   2.1594  -0.0070 C.2            1 <1>                0.0000
     11 S11          2.0341   3.6554  -0.0102 S.2            1 <1>                0.0000
     12 N12          1.7862   0.9467  -0.0223 N.am           1 <1>                0.0000
     13 H13          2.7412   0.7770  -0.0372 H              1 <1>                0.0000
     14 C14          0.7859  -0.0228  -0.0133 C.ar           1 <1>                0.0000
     15 C15          0.8052  -1.4103  -0.0152 C.ar           1 <1>                0.0000
     16 Br16         2.4547  -2.3349  -0.0325 Br             1 <1>                0.0000
@<TRIPOS>BOND
    1    1    2 1     
    2    2   15 ar    
    3    2    3 ar    
    4    3    4 1     
    5    3    5 ar    
    6    5    6 1     
    7    5    7 ar    
    8    7   14 ar    
    9    7    8 1     
   10    8    9 1     
   11    8   10 am    
   12   10   11 2     
   13   10   12 am    
   14   12   13 1     
   15   12   14 1     
   16   14   15 ar    
   17   15   16 1     
@<TRIPOS>SUBSTRUCTURE
      1 ****           1
@<TRIPOS>SET
DONOR_HYDROGENS      STATIC     ATOMS    <user>   **** ""
2 9 13
ATOM$RED        STATIC     ATOMS    COLORGROUP SYSTEM
2 9 13
