#       Name:                K5Q
#       Creating user name   gbret
#       Creation time:       Fri Sep  9 10:45:40 2016


#       File generated by GOLD software.
#

@<TRIPOS>MOLECULE
K5Q
    47    50     1
SMALL
NO_CHARGES


@<TRIPOS>ATOM
      1 O1          -1.2833   2.0751   2.7528 O.3            1 <1>                0.0000
      2 N2          -1.4485   1.0904   1.7487 N.2            1 <1>                0.0000
      3 C3          -2.6158   0.5667   1.5404 C.2            1 <1>                0.0000
      4 C4          -3.8991   0.8933   2.2672 C.3            1 <1>                0.0000
      5 C5          -4.9713   0.0211   1.6614 C.ar           1 <1>                0.0000
      6 C6          -6.3189  -0.0905   1.9437 C.ar           1 <1>                0.0000
      7 C7          -7.1069  -0.9797   1.2362 C.ar           1 <1>                0.0000
      8 C8          -6.5494  -1.7634   0.2413 C.ar           1 <1>                0.0000
      9 C9          -5.2062  -1.6611  -0.0497 C.ar           1 <1>                0.0000
     10 C10         -4.4022  -0.7635   0.6614 C.ar           1 <1>                0.0000
     11 C11         -2.9581  -0.4605   0.5441 C.2            1 <1>                0.0000
     12 C12         -2.0923  -1.0374  -0.3346 C.2            1 <1>                0.0000
     13 C13         -0.7220  -0.5321  -0.4515 C.ar           1 <1>                0.0000
     14 C14         -0.4758   0.8428  -0.4369 C.ar           1 <1>                0.0000
     15 C15          0.8145   1.3169  -0.5451 C.ar           1 <1>                0.0000
     16 C16          1.8852   0.4398  -0.6689 C.ar           1 <1>                0.0000
     17 O17          3.1467   0.9425  -0.7644 O.3            1 <1>                0.0000
     18 C18          4.1567   0.0573  -1.2601 C.3            1 <1>                0.0000
     19 C19          5.5411   0.6445  -0.9779 C.3            1 <1>                0.0000
     20 C20          5.7171   1.9403  -1.7723 C.3            1 <1>                0.0000
     21 C21          7.0806   2.5187  -1.4943 C.2            1 <1>                0.0000
     22 O22          7.8412   1.9475  -0.7315 O.co2          1 <1>                0.0000
     23 O23          7.4232   3.5578  -2.0322 O.co2          1 <1>                0.0000
     24 C24          4.0099  -1.2904  -0.5409 C.3            1 <1>                0.0000
     25 O25          2.7016  -1.8034  -0.8145 O.3            1 <1>                0.0000
     26 C26          1.6660  -0.9342  -0.6890 C.ar           1 <1>                0.0000
     27 C27          0.3620  -1.4337  -0.5740 C.ar           1 <1>                0.0000
     28 C28          0.1214  -2.8818  -0.5858 C.2            1 <1>                0.0000
     29 O29          1.0667  -3.6592  -0.5993 O.co2          1 <1>                0.0000
     30 O30         -1.0246  -3.3118  -0.5821 O.co2          1 <1>                0.0000
     31 H31         -0.3783   2.4060   2.8340 H              1 <1>                0.0000
     32 H32         -3.7935   0.6719   3.3293 H              1 <1>                0.0000
     33 H33         -4.1501   1.9448   2.1277 H              1 <1>                0.0000
     34 H34         -6.7584   0.5185   2.7198 H              1 <1>                0.0000
     35 H35         -8.1600  -1.0630   1.4610 H              1 <1>                0.0000
     36 H36         -7.1684  -2.4570  -0.3084 H              1 <1>                0.0000
     37 H37         -4.7739  -2.2744  -0.8265 H              1 <1>                0.0000
     38 H38         -2.4157  -1.8674  -0.9453 H              1 <1>                0.0000
     39 H39         -1.2982   1.5362  -0.3411 H              1 <1>                0.0000
     40 H40          0.9949   2.3816  -0.5338 H              1 <1>                0.0000
     41 H41          4.0286  -0.0822  -2.3335 H              1 <1>                0.0000
     42 H42          5.6360   0.8556   0.0873 H              1 <1>                0.0000
     43 H43          6.3071  -0.0713  -1.2761 H              1 <1>                0.0000
     44 H44          5.6222   1.7292  -2.8374 H              1 <1>                0.0000
     45 H45          4.9511   2.6561  -1.4741 H              1 <1>                0.0000
     46 H46          4.7626  -1.9876  -0.9091 H              1 <1>                0.0000
     47 H47          4.1324  -1.1494   0.5329 H              1 <1>                0.0000
@<TRIPOS>BOND
    1    1    2 1     
    2    1   31 1     
    3    2    3 2     
    4    3   11 1     
    5    3    4 1     
    6    4    5 1     
    7    4   32 1     
    8    4   33 1     
    9    5   10 ar    
   10    5    6 ar    
   11    6    7 ar    
   12    6   34 1     
   13    7    8 ar    
   14    7   35 1     
   15    8    9 ar    
   16    8   36 1     
   17    9   10 ar    
   18    9   37 1     
   19   10   11 1     
   20   11   12 2     
   21   12   13 1     
   22   12   38 1     
   23   13   27 ar    
   24   13   14 ar    
   25   14   15 ar    
   26   14   39 1     
   27   15   16 ar    
   28   15   40 1     
   29   16   26 ar    
   30   16   17 1     
   31   17   18 1     
   32   18   19 1     
   33   18   24 1     
   34   18   41 1     
   35   19   20 1     
   36   19   42 1     
   37   19   43 1     
   38   20   21 1     
   39   20   44 1     
   40   20   45 1     
   41   21   22 ar    
   42   21   23 ar    
   43   24   25 1     
   44   24   46 1     
   45   24   47 1     
   46   25   26 1     
   47   26   27 ar    
   48   27   28 1     
   49   28   29 ar    
   50   28   30 ar    
@<TRIPOS>SUBSTRUCTURE
      1 ****           1
@<TRIPOS>SET
DONOR_HYDROGENS      STATIC     ATOMS    <user>   **** ""
1 31
ATOM$RED        STATIC     ATOMS    COLORGROUP SYSTEM
1 31
