#       Name:                K80
#       Creating user name   gbret
#       Creation time:       Fri Sep  9 10:46:40 2016


#       File generated by GOLD software.
#

@<TRIPOS>MOLECULE
K80
    33    34     1
SMALL
NO_CHARGES


@<TRIPOS>ATOM
      1 C1          -0.6803   3.7574   1.0048 C.3            1 <1>                0.0000
      2 C2          -0.6595   2.2275   0.9964 C.3            1 <1>                0.0000
      3 N3           0.0946   1.7294  -0.1736 N.4            1 <1>                0.0000
      4 H4          -0.5469   1.4938  -0.9159 H              1 <1>                0.0000
      5 H5           0.7366   2.4400  -0.4914 H              1 <1>                0.0000
      6 C6           0.8486   0.5285   0.2304 C.3            1 <1>                0.0000
      7 C7           0.5623   0.2913   1.7281 C.3            1 <1>                0.0000
      8 O8           1.7455  -0.1335   2.4076 O.3            1 <1>                0.0000
      9 C9           0.1173   1.6920   2.2250 C.3            1 <1>                0.0000
     10 O10          1.2485   2.5157   2.5143 O.3            1 <1>                0.0000
     11 C11          0.3889  -0.6601  -0.5740 C.ar           1 <1>                0.0000
     12 C12         -0.9500  -0.8086  -0.8842 C.ar           1 <1>                0.0000
     13 C13         -1.3717  -1.8989  -1.6221 C.ar           1 <1>                0.0000
     14 C14         -0.4544  -2.8404  -2.0500 C.ar           1 <1>                0.0000
     15 C15         -0.9142  -4.0293  -2.8539 C.3            1 <1>                0.0000
     16 C16          0.8846  -2.6912  -1.7409 C.ar           1 <1>                0.0000
     17 C17          1.3068  -1.5989  -1.0063 C.ar           1 <1>                0.0000
     18 H18          0.3423   4.1347   0.9971 H              1 <1>                0.0000
     19 H19         -1.2075   4.1184   0.1218 H              1 <1>                0.0000
     20 H20         -1.1905   4.1089   1.9016 H              1 <1>                0.0000
     21 H21         -1.6764   1.8350   0.9897 H              1 <1>                0.0000
     22 H22          1.9155   0.6918   0.0781 H              1 <1>                0.0000
     23 H23         -0.2373  -0.4382   1.8568 H              1 <1>                0.0000
     24 H24          1.6194  -0.2963   3.3524 H              1 <1>                0.0000
     25 H25         -0.5356   1.6088   3.0938 H              1 <1>                0.0000
     26 H26          1.8194   2.1686   3.2134 H              1 <1>                0.0000
     27 H27         -1.6666  -0.0731  -0.5499 H              1 <1>                0.0000
     28 H28         -2.4178  -2.0153  -1.8639 H              1 <1>                0.0000
     29 H29         -0.8837  -3.7838  -3.9155 H              1 <1>                0.0000
     30 H30         -0.2571  -4.8765  -2.6579 H              1 <1>                0.0000
     31 H31         -1.9344  -4.2874  -2.5699 H              1 <1>                0.0000
     32 H32          1.6013  -3.4266  -2.0755 H              1 <1>                0.0000
     33 H33          2.3530  -1.4823  -0.7648 H              1 <1>                0.0000
@<TRIPOS>BOND
    1    1    2 1     
    2    1   18 1     
    3    1   19 1     
    4    1   20 1     
    5    2    9 1     
    6    2    3 1     
    7    2   21 1     
    8    3    4 1     
    9    3    5 1     
   10    3    6 1     
   11    6    7 1     
   12    6   11 1     
   13    6   22 1     
   14    7    8 1     
   15    7    9 1     
   16    7   23 1     
   17    8   24 1     
   18    9   10 1     
   19    9   25 1     
   20   10   26 1     
   21   11   17 ar    
   22   11   12 ar    
   23   12   13 ar    
   24   12   27 1     
   25   13   14 ar    
   26   13   28 1     
   27   14   15 1     
   28   14   16 ar    
   29   15   29 1     
   30   15   30 1     
   31   15   31 1     
   32   16   17 ar    
   33   16   32 1     
   34   17   33 1     
@<TRIPOS>SUBSTRUCTURE
      1 ****           1
@<TRIPOS>SET
DONOR_HYDROGENS      STATIC     ATOMS    <user>   **** ""
4 4 5 24 26
ATOM$RED        STATIC     ATOMS    COLORGROUP SYSTEM
4 4 5 24 26
