#       Name:                K84
#       Creating user name   gbret
#       Creation time:       Fri Sep  9 10:46:53 2016


#       File generated by GOLD software.
#

@<TRIPOS>MOLECULE
K84
    67    68     1
SMALL
NO_CHARGES


@<TRIPOS>ATOM
      1 C1           9.0655   7.6798   3.1117 C.3            1 <1>                0.0000
      2 C2           9.0863   6.1499   3.1033 C.3            1 <1>                0.0000
      3 C3           7.6509   5.6204   3.1142 C.3            1 <1>                0.0000
      4 C4           7.6716   4.0905   3.1058 C.3            1 <1>                0.0000
      5 C5           6.2363   3.5609   3.1166 C.3            1 <1>                0.0000
      6 C6           6.2570   2.0311   3.1082 C.3            1 <1>                0.0000
      7 C7           4.8216   1.5015   3.1191 C.3            1 <1>                0.0000
      8 C8           4.8424  -0.0283   3.1107 C.3            1 <1>                0.0000
      9 C9           3.4286  -0.5499   3.1214 C.2            1 <1>                0.0000
     10 C10          3.0304  -1.3822   2.1913 C.2            1 <1>                0.0000
     11 C11          1.6166  -1.9038   2.2020 C.3            1 <1>                0.0000
     12 C12          0.9544  -1.6102   0.8543 C.3            1 <1>                0.0000
     13 C13         -0.4809  -2.1397   0.8652 C.3            1 <1>                0.0000
     14 C14         -1.1431  -1.8461  -0.4825 C.3            1 <1>                0.0000
     15 C15         -2.5785  -2.3757  -0.4716 C.3            1 <1>                0.0000
     16 C16         -3.2406  -2.0821  -1.8193 C.3            1 <1>                0.0000
     17 C17         -4.6760  -2.6117  -1.8085 C.3            1 <1>                0.0000
     18 C18         -5.3282  -2.3225  -3.1359 C.2            1 <1>                0.0000
     19 O19         -4.7059  -1.7490  -4.0055 O.2            1 <1>                0.0000
     20 C20         -6.7135  -2.7338  -3.3765 C.2            1 <1>                0.0000
     21 N21         -7.5017  -3.3551  -2.5229 N.2            1 <1>                0.0000
     22 N22         -8.6473  -3.5580  -3.0727 N.2            1 <1>                0.0000
     23 C23         -8.6346  -3.0735  -4.3000 C.2            1 <1>                0.0000
     24 O24         -7.4188  -2.5404  -4.5117 O.3            1 <1>                0.0000
     25 C25         -9.7545  -3.1056  -5.2637 C.ar           1 <1>                0.0000
     26 C26        -10.9687  -3.6860  -4.8950 C.ar           1 <1>                0.0000
     27 C27        -12.0083  -3.7078  -5.8090 C.ar           1 <1>                0.0000
     28 C28        -11.8007  -3.1489  -7.0617 C.ar           1 <1>                0.0000
     29 C29        -10.5700  -2.5895  -7.3608 C.ar           1 <1>                0.0000
     30 N30         -9.5992  -2.5768  -6.4724 N.ar           1 <1>                0.0000
     31 H31         10.0881   8.0571   3.1040 H              1 <1>                0.0000
     32 H32          8.5383   8.0408   2.2287 H              1 <1>                0.0000
     33 H33          8.5553   8.0313   4.0085 H              1 <1>                0.0000
     34 H34          9.5965   5.7984   2.2065 H              1 <1>                0.0000
     35 H35          9.6135   5.7889   3.9864 H              1 <1>                0.0000
     36 H36          7.1407   5.9719   4.0110 H              1 <1>                0.0000
     37 H37          7.1237   5.9814   2.2311 H              1 <1>                0.0000
     38 H38          8.1818   3.7390   2.2090 H              1 <1>                0.0000
     39 H39          8.1988   3.7294   3.9888 H              1 <1>                0.0000
     40 H40          5.7261   3.9125   4.0134 H              1 <1>                0.0000
     41 H41          5.7091   3.9220   2.2336 H              1 <1>                0.0000
     42 H42          6.7672   1.6796   2.2114 H              1 <1>                0.0000
     43 H43          6.7842   1.6700   3.9913 H              1 <1>                0.0000
     44 H44          4.3114   1.8530   4.0159 H              1 <1>                0.0000
     45 H45          4.2944   1.8626   2.2360 H              1 <1>                0.0000
     46 H46          5.3526  -0.3798   2.2139 H              1 <1>                0.0000
     47 H47          5.3696  -0.3894   3.9937 H              1 <1>                0.0000
     48 H48          2.7436  -0.2377   3.8958 H              1 <1>                0.0000
     49 H49          3.7153  -1.6944   1.4169 H              1 <1>                0.0000
     50 H50          1.6277  -2.9800   2.3746 H              1 <1>                0.0000
     51 H51          1.0546  -1.4140   2.9973 H              1 <1>                0.0000
     52 H52          0.9434  -0.5340   0.6817 H              1 <1>                0.0000
     53 H53          1.5164  -2.0999   0.0590 H              1 <1>                0.0000
     54 H54         -0.4699  -3.2159   1.0378 H              1 <1>                0.0000
     55 H55         -1.0429  -1.6500   1.6605 H              1 <1>                0.0000
     56 H56         -1.1542  -0.7699  -0.6551 H              1 <1>                0.0000
     57 H57         -0.5811  -2.3359  -1.2778 H              1 <1>                0.0000
     58 H58         -2.5674  -3.4519  -0.2991 H              1 <1>                0.0000
     59 H59         -3.1404  -1.8860   0.3236 H              1 <1>                0.0000
     60 H60         -3.2517  -1.0059  -1.9919 H              1 <1>                0.0000
     61 H61         -2.6787  -2.5718  -2.6146 H              1 <1>                0.0000
     62 H62         -4.6649  -3.6879  -1.6359 H              1 <1>                0.0000
     63 H63         -5.2379  -2.1219  -1.0132 H              1 <1>                0.0000
     64 H64        -11.0955  -4.1124  -3.9109 H              1 <1>                0.0000
     65 H65        -12.9596  -4.1504  -5.5527 H              1 <1>                0.0000
     66 H66        -12.5917  -3.1505  -7.7970 H              1 <1>                0.0000
     67 H67        -10.4057  -2.1540  -8.3353 H              1 <1>                0.0000
@<TRIPOS>BOND
    1    1    2 1     
    2    1   31 1     
    3    1   32 1     
    4    1   33 1     
    5    2    3 1     
    6    2   34 1     
    7    2   35 1     
    8    3    4 1     
    9    3   36 1     
   10    3   37 1     
   11    4    5 1     
   12    4   38 1     
   13    4   39 1     
   14    5    6 1     
   15    5   40 1     
   16    5   41 1     
   17    6    7 1     
   18    6   42 1     
   19    6   43 1     
   20    7    8 1     
   21    7   44 1     
   22    7   45 1     
   23    8    9 1     
   24    8   46 1     
   25    8   47 1     
   26    9   10 2     
   27    9   48 1     
   28   10   11 1     
   29   10   49 1     
   30   11   12 1     
   31   11   50 1     
   32   11   51 1     
   33   12   13 1     
   34   12   52 1     
   35   12   53 1     
   36   13   14 1     
   37   13   54 1     
   38   13   55 1     
   39   14   15 1     
   40   14   56 1     
   41   14   57 1     
   42   15   16 1     
   43   15   58 1     
   44   15   59 1     
   45   16   17 1     
   46   16   60 1     
   47   16   61 1     
   48   17   18 1     
   49   17   62 1     
   50   17   63 1     
   51   18   19 2     
   52   18   20 1     
   53   20   24 1     
   54   20   21 2     
   55   21   22 1     
   56   22   23 2     
   57   23   24 1     
   58   23   25 1     
   59   25   30 ar    
   60   25   26 ar    
   61   26   27 ar    
   62   26   64 1     
   63   27   28 ar    
   64   27   65 1     
   65   28   29 ar    
   66   28   66 1     
   67   29   30 ar    
   68   29   67 1     
@<TRIPOS>SUBSTRUCTURE
      1 ****           1
