#       Name:                KEL
#       Creating user name   gbret
#       Creation time:       Fri Sep  9 10:51:45 2016


#       File generated by GOLD software.
#

@<TRIPOS>MOLECULE
KEL
    38    38     1
SMALL
NO_CHARGES


@<TRIPOS>ATOM
      1 C1          -0.3680   3.1522   3.3826 C.3            1 <1>                0.0000
      2 C2          -0.3420   1.6228   3.4164 C.3            1 <1>                0.0000
      3 N3           0.2611   1.1173   2.1807 N.am           1 <1>                0.0000
      4 C4          -0.4977   0.9513   1.0793 C.2            1 <1>                0.0000
      5 O5          -1.6799   1.2205   1.1111 O.2            1 <1>                0.0000
      6 C6           0.1227   0.4313  -0.1918 C.3            1 <1>                0.0000
      7 C7           0.7160  -0.9561   0.0607 C.3            1 <1>                0.0000
      8 C8          -0.3497  -1.8645   0.6176 C.2            1 <1>                0.0000
      9 O9          -1.4915  -1.4684   0.7197 O.2            1 <1>                0.0000
     10 N10         -0.0341  -3.1171   1.0022 N.am           1 <1>                0.0000
     11 O11         -1.0355  -3.9705   1.5255 O.3            1 <1>                0.0000
     12 C12         -0.9480   0.3376  -1.2807 C.3            1 <1>                0.0000
     13 C13         -0.3015  -0.0334  -2.5904 C.ar           1 <1>                0.0000
     14 C14          0.1258   0.9568  -3.4553 C.ar           1 <1>                0.0000
     15 C15          0.7189   0.6165  -4.6566 C.ar           1 <1>                0.0000
     16 C16          0.8852  -0.7140  -4.9930 C.ar           1 <1>                0.0000
     17 C17          0.4588  -1.7042  -4.1277 C.ar           1 <1>                0.0000
     18 C18         -0.1304  -1.3639  -2.9244 C.ar           1 <1>                0.0000
     19 C19          0.4710   1.1602   4.5980 C.2            1 <1>                0.0000
     20 O20          0.0445   1.3152   5.7296 O.co2          1 <1>                0.0000
     21 O21          1.5551   0.6309   4.4223 O.co2          1 <1>                0.0000
     22 H22          0.6502   3.5311   3.2938 H              1 <1>                0.0000
     23 H23         -0.9560   3.4868   2.5280 H              1 <1>                0.0000
     24 H24         -0.8167   3.5283   4.3020 H              1 <1>                0.0000
     25 H25         -1.3602   1.2440   3.5052 H              1 <1>                0.0000
     26 H26          1.2066   0.9020   2.1552 H              1 <1>                0.0000
     27 H27          0.9115   1.1104  -0.5154 H              1 <1>                0.0000
     28 H28          1.0904  -1.3673  -0.8767 H              1 <1>                0.0000
     29 H29          1.5352  -0.8764   0.7753 H              1 <1>                0.0000
     30 H30          0.8791  -3.4339   0.9206 H              1 <1>                0.0000
     31 H31         -0.7140  -4.8482   1.7735 H              1 <1>                0.0000
     32 H32         -1.6784  -0.4240  -1.0075 H              1 <1>                0.0000
     33 H33         -1.4482   1.3007  -1.3824 H              1 <1>                0.0000
     34 H34         -0.0042   1.9962  -3.1925 H              1 <1>                0.0000
     35 H35          1.0520   1.3900  -5.3327 H              1 <1>                0.0000
     36 H36          1.3479  -0.9799  -5.9319 H              1 <1>                0.0000
     37 H37          0.5884  -2.7436  -4.3906 H              1 <1>                0.0000
     38 H38         -0.4636  -2.1374  -2.2484 H              1 <1>                0.0000
@<TRIPOS>BOND
    1    1    2 1     
    2    1   22 1     
    3    1   23 1     
    4    1   24 1     
    5    2    3 1     
    6    2   19 1     
    7    2   25 1     
    8    3    4 am    
    9    3   26 1     
   10    4    5 2     
   11    4    6 1     
   12    6    7 1     
   13    6   12 1     
   14    6   27 1     
   15    7    8 1     
   16    7   28 1     
   17    7   29 1     
   18    8    9 2     
   19    8   10 am    
   20   10   11 1     
   21   10   30 1     
   22   11   31 1     
   23   12   13 1     
   24   12   32 1     
   25   12   33 1     
   26   13   18 ar    
   27   13   14 ar    
   28   14   15 ar    
   29   14   34 1     
   30   15   16 ar    
   31   15   35 1     
   32   16   17 ar    
   33   16   36 1     
   34   17   18 ar    
   35   17   37 1     
   36   18   38 1     
   37   19   20 ar    
   38   19   21 ar    
@<TRIPOS>SUBSTRUCTURE
      1 ****           1
@<TRIPOS>SET
DONOR_HYDROGENS      STATIC     ATOMS    <user>   **** ""
3 26 30 31
ATOM$RED        STATIC     ATOMS    COLORGROUP SYSTEM
3 26 30 31
