#       Name:                KFZ
#       Creating user name   gbret
#       Creation time:       Fri Sep  9 10:52:18 2016


#       File generated by GOLD software.
#

@<TRIPOS>MOLECULE
KFZ
    34    36     1
SMALL
NO_CHARGES


@<TRIPOS>ATOM
      1 C1           4.9846   1.7388  -2.0411 C.3            1 <1>                0.0000
      2 C2           5.0054   0.2089  -2.0495 C.3            1 <1>                0.0000
      3 C3           3.5916  -0.3127  -2.0388 C.2            1 <1>                0.0000
      4 C4           3.1739  -1.2022  -3.0267 C.2            1 <1>                0.0000
      5 C5           1.8869  -1.6682  -3.0041 C.2            1 <1>                0.0000
      6 O6           1.4522  -2.5328  -3.9490 O.3            1 <1>                0.0000
      7 N7           1.0515  -1.2471  -2.0143 N.pl3          1 <1>                0.0000
      8 N8          -0.2876  -1.5209  -1.7072 N.2            1 <1>                0.0000
      9 C9          -0.5840  -0.8297  -0.6261 C.2            1 <1>                0.0000
     10 S10         -2.1518  -0.8203   0.1780 S.3            1 <1>                0.0000
     11 C11         -1.8892   0.3118   1.5709 C.3            1 <1>                0.0000
     12 C12         -3.1614   0.4283   2.3702 C.ar           1 <1>                0.0000
     13 C13         -4.0922   1.3986   2.0501 C.ar           1 <1>                0.0000
     14 C14         -5.2600   1.5056   2.7839 C.ar           1 <1>                0.0000
     15 Cl15        -6.4294   2.7240   2.3815 Cl             1 <1>                0.0000
     16 C16         -5.4963   0.6413   3.8383 C.ar           1 <1>                0.0000
     17 C17         -4.5655  -0.3284   4.1586 C.ar           1 <1>                0.0000
     18 C18         -3.4002  -0.4394   3.4208 C.ar           1 <1>                0.0000
     19 Cl19        -2.2308  -1.6578   3.8231 Cl             1 <1>                0.0000
     20 N20          0.4856  -0.1387  -0.2350 N.2            1 <1>                0.0000
     21 C21          1.4980  -0.3739  -1.0629 C.2            1 <1>                0.0000
     22 N22          2.7597   0.0705  -1.0930 N.2            1 <1>                0.0000
     23 H23          6.0072   2.1161  -2.0488 H              1 <1>                0.0000
     24 H24          4.4574   2.0998  -2.9241 H              1 <1>                0.0000
     25 H25          4.4744   2.0903  -1.1443 H              1 <1>                0.0000
     26 H26          5.5156  -0.1426  -2.9463 H              1 <1>                0.0000
     27 H27          5.5326  -0.1521  -1.1664 H              1 <1>                0.0000
     28 H28          3.8569  -1.5198  -3.8007 H              1 <1>                0.0000
     29 H29          1.5805  -3.4634  -3.7196 H              1 <1>                0.0000
     30 H30         -1.0938  -0.0747   2.2082 H              1 <1>                0.0000
     31 H31         -1.6066   1.2941   1.1925 H              1 <1>                0.0000
     32 H32         -3.9077   2.0735   1.2274 H              1 <1>                0.0000
     33 H33         -6.4080   0.7248   4.4112 H              1 <1>                0.0000
     34 H34         -4.7498  -1.0028   4.9818 H              1 <1>                0.0000
@<TRIPOS>BOND
    1    1    2 1     
    2    1   23 1     
    3    1   24 1     
    4    1   25 1     
    5    2    3 1     
    6    2   26 1     
    7    2   27 1     
    8    3   22 2     
    9    3    4 1     
   10    4    5 2     
   11    4   28 1     
   12    5    6 1     
   13    5    7 1     
   14    6   29 1     
   15    7   21 1     
   16    7    8 1     
   17    8    9 2     
   18    9   10 1     
   19    9   20 1     
   20   10   11 1     
   21   11   12 1     
   22   11   30 1     
   23   11   31 1     
   24   12   18 ar    
   25   12   13 ar    
   26   13   14 ar    
   27   13   32 1     
   28   14   15 1     
   29   14   16 ar    
   30   16   17 ar    
   31   16   33 1     
   32   17   18 ar    
   33   17   34 1     
   34   18   19 1     
   35   20   21 2     
   36   21   22 1     
@<TRIPOS>SUBSTRUCTURE
      1 ****           1
@<TRIPOS>SET
DONOR_HYDROGENS      STATIC     ATOMS    <user>   **** ""
1 29
ATOM$RED        STATIC     ATOMS    COLORGROUP SYSTEM
1 29
