#       Name:                KGG
#       Creating user name   gbret
#       Creation time:       Fri Sep  9 10:52:26 2016


#       File generated by GOLD software.
#

@<TRIPOS>MOLECULE
KGG
    52    55     1
SMALL
NO_CHARGES


@<TRIPOS>ATOM
      1 C1          -0.7643   4.8363   2.8861 C.3            1 <1>                0.0000
      2 O2          -0.7397   3.4075   2.8854 O.3            1 <1>                0.0000
      3 C3          -0.0878   2.8380   1.7485 C.3            1 <1>                0.0000
      4 C4           0.4710   1.4351   2.0888 C.3            1 <1>                0.0000
      5 C5           0.2006   0.6812   0.7659 C.3            1 <1>                0.0000
      6 N6          -0.9078   1.4042   0.1320 N.pl3          1 <1>                0.0000
      7 H7          -1.4460   1.0428  -0.5896 H              1 <1>                0.0000
      8 C8          -1.0848   2.5725   0.6424 C.2            1 <1>                0.0000
      9 N9          -2.0485   3.4582   0.2375 N.pl3          1 <1>                0.0000
     10 C10          1.4218   0.7186  -0.1163 C.ar           1 <1>                0.0000
     11 C11          2.6332   0.2545   0.3621 C.ar           1 <1>                0.0000
     12 C12          3.7542   0.2876  -0.4446 C.ar           1 <1>                0.0000
     13 C13          3.6635   0.7866  -1.7359 C.ar           1 <1>                0.0000
     14 O14          4.7647   0.8199  -2.5316 O.3            1 <1>                0.0000
     15 C15          4.5973   1.3468  -3.8493 C.3            1 <1>                0.0000
     16 C16          2.4467   1.2512  -2.2137 C.ar           1 <1>                0.0000
     17 C17          1.3277   1.2115  -1.4047 C.ar           1 <1>                0.0000
     18 C18         -0.1984  -0.7442   1.0485 C.ar           1 <1>                0.0000
     19 C19          0.2816  -1.3849   2.1768 C.ar           1 <1>                0.0000
     20 C20         -0.0806  -2.6930   2.4422 C.ar           1 <1>                0.0000
     21 C21         -0.9241  -3.3664   1.5818 C.ar           1 <1>                0.0000
     22 C22         -1.4109  -2.7260   0.4443 C.ar           1 <1>                0.0000
     23 C23         -1.0465  -1.4062   0.1843 C.ar           1 <1>                0.0000
     24 C24         -2.3180  -3.4448  -0.4844 C.ar           1 <1>                0.0000
     25 C25         -2.6974  -4.7650  -0.2265 C.ar           1 <1>                0.0000
     26 C26         -3.5453  -5.3915  -1.1234 C.ar           1 <1>                0.0000
     27 C27         -3.9859  -4.6975  -2.2357 C.ar           1 <1>                0.0000
     28 N28         -3.6102  -3.4520  -2.4527 N.ar           1 <1>                0.0000
     29 C29         -2.8098  -2.8128  -1.6242 C.ar           1 <1>                0.0000
     30 H30          0.2569   5.2172   2.8766 H              1 <1>                0.0000
     31 H31         -1.2926   5.1910   2.0012 H              1 <1>                0.0000
     32 H32         -1.2759   5.1905   3.7810 H              1 <1>                0.0000
     33 H33          0.7083   3.4942   1.3967 H              1 <1>                0.0000
     34 H34          1.5385   1.4794   2.3045 H              1 <1>                0.0000
     35 H35         -0.0767   0.9845   2.9165 H              1 <1>                0.0000
     36 H36         -2.1238   4.3237   0.6689 H              1 <1>                0.0000
     37 H37         -2.6556   3.2197  -0.4805 H              1 <1>                0.0000
     38 H38          2.7033  -0.1338   1.3674 H              1 <1>                0.0000
     39 H39          4.7004  -0.0743  -0.0702 H              1 <1>                0.0000
     40 H40          4.2499   2.3780  -3.7868 H              1 <1>                0.0000
     41 H41          5.5506   1.3159  -4.3769 H              1 <1>                0.0000
     42 H42          3.8636   0.7483  -4.3894 H              1 <1>                0.0000
     43 H43          2.3737   1.6404  -3.2185 H              1 <1>                0.0000
     44 H44          0.3801   1.5727  -1.7763 H              1 <1>                0.0000
     45 H45          0.9418  -0.8617   2.8526 H              1 <1>                0.0000
     46 H46          0.2976  -3.1886   3.3241 H              1 <1>                0.0000
     47 H47         -1.2060  -4.3880   1.7898 H              1 <1>                0.0000
     48 H48         -1.4210  -0.9050  -0.6960 H              1 <1>                0.0000
     49 H49         -2.3378  -5.2833   0.6501 H              1 <1>                0.0000
     50 H50         -3.8592  -6.4114  -0.9567 H              1 <1>                0.0000
     51 H51         -4.6476  -5.1831  -2.9377 H              1 <1>                0.0000
     52 H52         -2.5242  -1.7930  -1.8359 H              1 <1>                0.0000
@<TRIPOS>BOND
    1    1    2 1     
    2    1   30 1     
    3    1   31 1     
    4    1   32 1     
    5    2    3 1     
    6    3    8 1     
    7    3    4 1     
    8    3   33 1     
    9    4    5 1     
   10    4   34 1     
   11    4   35 1     
   12    5    6 1     
   13    5   10 1     
   14    5   18 1     
   15    6    7 1     
   16    6    8 2     
   17    8    9 1     
   18    9   36 1     
   19    9   37 1     
   20   10   17 ar    
   21   10   11 ar    
   22   11   12 ar    
   23   11   38 1     
   24   12   13 ar    
   25   12   39 1     
   26   13   14 1     
   27   13   16 ar    
   28   14   15 1     
   29   15   40 1     
   30   15   41 1     
   31   15   42 1     
   32   16   17 ar    
   33   16   43 1     
   34   17   44 1     
   35   18   23 ar    
   36   18   19 ar    
   37   19   20 ar    
   38   19   45 1     
   39   20   21 ar    
   40   20   46 1     
   41   21   22 ar    
   42   21   47 1     
   43   22   23 ar    
   44   22   24 1     
   45   23   48 1     
   46   24   29 ar    
   47   24   25 ar    
   48   25   26 ar    
   49   25   49 1     
   50   26   27 ar    
   51   26   50 1     
   52   27   28 ar    
   53   27   51 1     
   54   28   29 ar    
   55   29   52 1     
@<TRIPOS>SUBSTRUCTURE
      1 ****           1
@<TRIPOS>SET
DONOR_HYDROGENS      STATIC     ATOMS    <user>   **** ""
3 7 36 37
ATOM$RED        STATIC     ATOMS    COLORGROUP SYSTEM
3 7 36 37
