#       Name:                KNA
#       Creating user name   gbret
#       Creation time:       Fri Sep  9 10:57:06 2016


#       File generated by GOLD software.
#

@<TRIPOS>MOLECULE
KNA
    28    27     1
SMALL
NO_CHARGES


@<TRIPOS>ATOM
      1 C1          -1.2732   4.1248   2.1777 C.3            1 <1>                0.0000
      2 C2          -1.2524   2.5949   2.1693 C.3            1 <1>                0.0000
      3 C3          -0.5363   2.1015   0.9105 C.3            1 <1>                0.0000
      4 C4          -0.5155   0.5717   0.9021 C.3            1 <1>                0.0000
      5 C5           0.2006   0.0783  -0.3567 C.3            1 <1>                0.0000
      6 C6           0.2213  -1.4516  -0.3651 C.3            1 <1>                0.0000
      7 C7           0.9375  -1.9450  -1.6239 C.3            1 <1>                0.0000
      8 C8           0.9582  -3.4748  -1.6323 C.3            1 <1>                0.0000
      9 C9           1.6636  -3.9608  -2.8722 C.2            1 <1>                0.0000
     10 O10          2.1085  -3.1580  -3.6747 O.co2          1 <1>                0.0000
     11 O11          1.7894  -5.1568  -3.0728 O.co2          1 <1>                0.0000
     12 H12         -0.2506   4.5021   2.1700 H              1 <1>                0.0000
     13 H13         -1.8004   4.4858   1.2947 H              1 <1>                0.0000
     14 H14         -1.7834   4.4763   3.0745 H              1 <1>                0.0000
     15 H15         -0.7252   2.2339   3.0524 H              1 <1>                0.0000
     16 H16         -2.2750   2.2176   2.1771 H              1 <1>                0.0000
     17 H17         -1.0635   2.4626   0.0275 H              1 <1>                0.0000
     18 H18          0.4863   2.4788   0.9028 H              1 <1>                0.0000
     19 H19          0.0116   0.2106   1.7852 H              1 <1>                0.0000
     20 H20         -1.5381   0.1944   0.9098 H              1 <1>                0.0000
     21 H21         -0.3266   0.4393  -1.2398 H              1 <1>                0.0000
     22 H22          1.2232   0.4555  -0.3644 H              1 <1>                0.0000
     23 H23          0.7485  -1.8127   0.5179 H              1 <1>                0.0000
     24 H24         -0.8012  -1.8289  -0.3574 H              1 <1>                0.0000
     25 H25          0.4103  -1.5839  -2.5070 H              1 <1>                0.0000
     26 H26          1.9601  -1.5677  -1.6317 H              1 <1>                0.0000
     27 H27          1.4854  -3.8359  -0.7493 H              1 <1>                0.0000
     28 H28         -0.0644  -3.8521  -1.6246 H              1 <1>                0.0000
@<TRIPOS>BOND
    1    1    2 1     
    2    1   12 1     
    3    1   13 1     
    4    1   14 1     
    5    2    3 1     
    6    2   15 1     
    7    2   16 1     
    8    3    4 1     
    9    3   17 1     
   10    3   18 1     
   11    4    5 1     
   12    4   19 1     
   13    4   20 1     
   14    5    6 1     
   15    5   21 1     
   16    5   22 1     
   17    6    7 1     
   18    6   23 1     
   19    6   24 1     
   20    7    8 1     
   21    7   25 1     
   22    7   26 1     
   23    8    9 1     
   24    8   27 1     
   25    8   28 1     
   26    9   10 ar    
   27    9   11 ar    
@<TRIPOS>SUBSTRUCTURE
      1 ****           1
