#       Name:                KPH
#       Creating user name   gbret
#       Creation time:       Fri Sep  9 10:59:13 2016


#       File generated by GOLD software.
#

@<TRIPOS>MOLECULE
KPH
    26    25     1
SMALL
NO_CHARGES


@<TRIPOS>ATOM
      1 N1          -0.0233  -0.8877  -3.9953 N.4            1 <1>                0.0000
      2 H2          -0.1376  -1.8751  -3.8218 H              1 <1>                0.0000
      3 H3           0.9543  -0.6820  -4.1367 H              1 <1>                0.0000
      4 H4          -0.5443  -0.6285  -4.8196 H              1 <1>                0.0000
      5 C5          -0.5219  -0.1269  -2.8417 C.3            1 <1>                0.0000
      6 C6           0.2680  -0.5199  -1.5917 C.3            1 <1>                0.0000
      7 C7          -0.2512   0.2724  -0.3903 C.3            1 <1>                0.0000
      8 C8           0.5387  -0.1205   0.8597 C.3            1 <1>                0.0000
      9 C9           0.1083   0.7618   2.0333 C.3            1 <1>                0.0000
     10 N10         -1.2952   0.4835   2.3662 N.4            1 <1>                0.0000
     11 H11         -1.8764   0.6816   1.5656 H              1 <1>                0.0000
     12 H12         -1.3941  -0.4877   2.6215 H              1 <1>                0.0000
     13 H13         -1.5790   1.0653   3.1401 H              1 <1>                0.0000
     14 P14          1.1584   0.4037   3.4798 P.3            1 <1>                0.0000
     15 O15          2.6381   0.8104   3.1643 O.co2          1 <1>                0.0000
     16 O16          0.6440   1.2208   4.7136 O.co2          1 <1>                0.0000
     17 O17          1.0956  -1.1276   3.8046 O.co2          1 <1>                0.0000
     18 H18         -0.3985   0.9397  -3.0291 H              1 <1>                0.0000
     19 H19         -1.5780  -0.3492  -2.6889 H              1 <1>                0.0000
     20 H20          0.1446  -1.5865  -1.4043 H              1 <1>                0.0000
     21 H21          1.3241  -0.2977  -1.7445 H              1 <1>                0.0000
     22 H22         -0.1278   1.3391  -0.5777 H              1 <1>                0.0000
     23 H23         -1.3074   0.0502  -0.2375 H              1 <1>                0.0000
     24 H24          0.3427  -1.1655   1.0998 H              1 <1>                0.0000
     25 H25          1.6040   0.0160   0.6741 H              1 <1>                0.0000
     26 H26          0.2151   1.8108   1.7575 H              1 <1>                0.0000
@<TRIPOS>BOND
    1    1    2 1     
    2    1    3 1     
    3    1    4 1     
    4    1    5 1     
    5    5    6 1     
    6    5   18 1     
    7    5   19 1     
    8    6    7 1     
    9    6   20 1     
   10    6   21 1     
   11    7    8 1     
   12    7   22 1     
   13    7   23 1     
   14    8    9 1     
   15    8   24 1     
   16    8   25 1     
   17    9   10 1     
   18    9   14 1     
   19    9   26 1     
   20   10   11 1     
   21   10   12 1     
   22   10   13 1     
   23   14   15 ar    
   24   14   16 ar    
   25   14   17 ar    
@<TRIPOS>SUBSTRUCTURE
      1 ****           1
@<TRIPOS>SET
DONOR_HYDROGENS      STATIC     ATOMS    <user>   **** ""
6 2 3 4 11 12 13
ATOM$RED        STATIC     ATOMS    COLORGROUP SYSTEM
6 2 3 4 11 12 13
