#       Name:                KS4
#       Creating user name   gbret
#       Creation time:       Fri Sep  9 11:01:21 2016


#       File generated by GOLD software.
#

@<TRIPOS>MOLECULE
KS4
    43    46     1
SMALL
NO_CHARGES


@<TRIPOS>ATOM
      1 C1          -4.0077   2.7604   3.3689 C.3            1 <1>                0.0000
      2 O2          -2.7107   2.2338   3.6561 O.3            1 <1>                0.0000
      3 C3          -2.0239   1.6846   2.6190 C.ar           1 <1>                0.0000
      4 C4          -2.5867   1.6599   1.3518 C.ar           1 <1>                0.0000
      5 C5          -1.8931   1.1036   0.2966 C.ar           1 <1>                0.0000
      6 C6          -0.6238   0.5648   0.5028 C.ar           1 <1>                0.0000
      7 C7          -0.0572   0.5892   1.7765 C.ar           1 <1>                0.0000
      8 C8          -0.7541   1.1531   2.8299 C.ar           1 <1>                0.0000
      9 O9          -0.2039   1.1789   4.0733 O.3            1 <1>                0.0000
     10 C10          1.0969   0.6056   4.2191 C.3            1 <1>                0.0000
     11 C11          0.1218  -0.0335  -0.6301 C.2            1 <1>                0.0000
     12 N12          0.7740  -1.1719  -0.6165 N.2            1 <1>                0.0000
     13 N13          1.3509  -1.4044  -1.8695 N.pl3          1 <1>                0.0000
     14 C14          2.1532  -2.5768  -2.2273 C.3            1 <1>                0.0000
     15 C15          3.0699  -3.0654  -1.0934 C.3            1 <1>                0.0000
     16 C16          1.8961  -3.9439  -0.6292 C.3            1 <1>                0.0000
     17 C17          1.3968  -3.9080  -2.0833 C.3            1 <1>                0.0000
     18 C18          1.0502  -0.3711  -2.7060 C.ar           1 <1>                0.0000
     19 N19          1.3341  -0.0851  -3.9767 N.ar           1 <1>                0.0000
     20 C20          0.8909   1.0218  -4.5305 C.ar           1 <1>                0.0000
     21 N21          0.1524   1.9011  -3.8767 N.ar           1 <1>                0.0000
     22 C22         -0.1837   1.7052  -2.6055 C.ar           1 <1>                0.0000
     23 N23         -0.9564   2.6278  -1.9272 N.pl3          1 <1>                0.0000
     24 C24          0.2609   0.5332  -1.9713 C.ar           1 <1>                0.0000
     25 H25         -3.9219   3.5508   2.6232 H              1 <1>                0.0000
     26 H26         -4.6456   1.9650   2.9836 H              1 <1>                0.0000
     27 H27         -4.4447   3.1671   4.2808 H              1 <1>                0.0000
     28 H28         -3.5699   2.0766   1.1906 H              1 <1>                0.0000
     29 H29         -2.3337   1.0852  -0.6893 H              1 <1>                0.0000
     30 H30          0.9257   0.1723   1.9395 H              1 <1>                0.0000
     31 H31          1.0644  -0.4462   3.9349 H              1 <1>                0.0000
     32 H32          1.8009   1.1340   3.5763 H              1 <1>                0.0000
     33 H33          1.4176   0.6917   5.2573 H              1 <1>                0.0000
     34 H34          2.6622  -2.4652  -3.1847 H              1 <1>                0.0000
     35 H35          3.9306  -3.6357  -1.4428 H              1 <1>                0.0000
     36 H36          3.3387  -2.2845  -0.3821 H              1 <1>                0.0000
     37 H37          2.1988  -4.9365  -0.2959 H              1 <1>                0.0000
     38 H38          1.2289  -3.4453   0.0739 H              1 <1>                0.0000
     39 H39          0.3151  -3.8073  -2.1712 H              1 <1>                0.0000
     40 H40          1.8002  -4.7086  -2.7033 H              1 <1>                0.0000
     41 H41          1.1410   1.2208  -5.5622 H              1 <1>                0.0000
     42 H42         -1.2608   3.4307  -2.3783 H              1 <1>                0.0000
     43 H43         -1.1946   2.4726  -0.9998 H              1 <1>                0.0000
@<TRIPOS>BOND
    1    1    2 1     
    2    1   25 1     
    3    1   26 1     
    4    1   27 1     
    5    2    3 1     
    6    3    8 ar    
    7    3    4 ar    
    8    4    5 ar    
    9    4   28 1     
   10    5    6 ar    
   11    5   29 1     
   12    6    7 ar    
   13    6   11 1     
   14    7    8 ar    
   15    7   30 1     
   16    8    9 1     
   17    9   10 1     
   18   10   31 1     
   19   10   32 1     
   20   10   33 1     
   21   11   24 1     
   22   11   12 2     
   23   12   13 1     
   24   13   14 1     
   25   13   18 1     
   26   14   17 1     
   27   14   15 1     
   28   14   34 1     
   29   15   16 1     
   30   15   35 1     
   31   15   36 1     
   32   16   17 1     
   33   16   37 1     
   34   16   38 1     
   35   17   39 1     
   36   17   40 1     
   37   18   24 ar    
   38   18   19 ar    
   39   19   20 ar    
   40   20   21 ar    
   41   20   41 1     
   42   21   22 ar    
   43   22   23 1     
   44   22   24 ar    
   45   23   42 1     
   46   23   43 1     
@<TRIPOS>SUBSTRUCTURE
      1 ****           1
@<TRIPOS>SET
DONOR_HYDROGENS      STATIC     ATOMS    <user>   **** ""
2 42 43
ATOM$RED        STATIC     ATOMS    COLORGROUP SYSTEM
2 42 43
