#       Name:                L61
#       Creating user name   gbret
#       Creation time:       Fri Sep  9 11:12:23 2016


#       File generated by GOLD software.
#

@<TRIPOS>MOLECULE
L61
    37    37     1
SMALL
NO_CHARGES


@<TRIPOS>ATOM
      1 C1           2.4166   4.9550   0.0062 C.3            1 <1>                0.0000
      2 C2           2.4374   3.4251  -0.0022 C.3            1 <1>                0.0000
      3 C3           3.1774   2.9183   1.2373 C.3            1 <1>                0.0000
      4 C4           1.0020   2.8956   0.0087 C.3            1 <1>                0.0000
      5 O5           1.0187   1.4492  -0.1186 O.3            1 <1>                0.0000
      6 C6          -0.1728   0.8224  -0.1259 C.2            1 <1>                0.0000
      7 O7          -1.1987   1.4664  -0.0287 O.2            1 <1>                0.0000
      8 N8          -0.2278  -0.5193  -0.2412 N.am           1 <1>                0.0000
      9 C9          -1.5243  -1.2013  -0.2492 C.3            1 <1>                0.0000
     10 C10         -2.0910  -1.2028  -1.6704 C.3            1 <1>                0.0000
     11 C11         -2.3826   0.2130  -2.0964 C.2            1 <1>                0.0000
     12 O12         -1.9009   0.6486  -3.1145 O.2            1 <1>                0.0000
     13 C13         -1.3477  -2.6216   0.2227 C.ar           1 <1>                0.0000
     14 C14         -0.2418  -3.3495  -0.1748 C.ar           1 <1>                0.0000
     15 C15         -0.0798  -4.6523   0.2581 C.ar           1 <1>                0.0000
     16 C16         -1.0235  -5.2270   1.0888 C.ar           1 <1>                0.0000
     17 C17         -2.1290  -4.4988   1.4870 C.ar           1 <1>                0.0000
     18 C18         -2.2888  -3.1945   1.0576 C.ar           1 <1>                0.0000
     19 H19          3.4392   5.3323  -0.0015 H              1 <1>                0.0000
     20 H20          1.8894   5.3160  -0.8768 H              1 <1>                0.0000
     21 H21          1.9064   5.3065   0.9030 H              1 <1>                0.0000
     22 H22          2.9476   3.0736  -0.8990 H              1 <1>                0.0000
     23 H23          3.1921   1.8284   1.2314 H              1 <1>                0.0000
     24 H24          4.2000   3.2956   1.2296 H              1 <1>                0.0000
     25 H25          2.6672   3.2698   2.1341 H              1 <1>                0.0000
     26 H26          0.5197   3.1722   0.9462 H              1 <1>                0.0000
     27 H27          0.4491   3.3273  -0.8256 H              1 <1>                0.0000
     28 H28          0.5911  -1.0333  -0.3188 H              1 <1>                0.0000
     29 H29         -2.2130  -0.6804   0.4160 H              1 <1>                0.0000
     30 H30         -1.3633  -1.6445  -2.3512 H              1 <1>                0.0000
     31 H31         -3.0114  -1.7862  -1.6939 H              1 <1>                0.0000
     32 H32         -3.0225   0.8381  -1.4912 H              1 <1>                0.0000
     33 H33          0.4955  -2.9005  -0.8237 H              1 <1>                0.0000
     34 H34          0.7838  -5.2212  -0.0530 H              1 <1>                0.0000
     35 H35         -0.8973  -6.2451   1.4264 H              1 <1>                0.0000
     36 H36         -2.8664  -4.9479   2.1357 H              1 <1>                0.0000
     37 H37         -3.1524  -2.6256   1.3687 H              1 <1>                0.0000
@<TRIPOS>BOND
    1    1    2 1     
    2    1   19 1     
    3    1   20 1     
    4    1   21 1     
    5    2    3 1     
    6    2    4 1     
    7    2   22 1     
    8    3   23 1     
    9    3   24 1     
   10    3   25 1     
   11    4    5 1     
   12    4   26 1     
   13    4   27 1     
   14    5    6 1     
   15    6    7 2     
   16    6    8 am    
   17    8    9 1     
   18    8   28 1     
   19    9   10 1     
   20    9   13 1     
   21    9   29 1     
   22   10   11 1     
   23   10   30 1     
   24   10   31 1     
   25   11   12 2     
   26   11   32 1     
   27   13   18 ar    
   28   13   14 ar    
   29   14   15 ar    
   30   14   33 1     
   31   15   16 ar    
   32   15   34 1     
   33   16   17 ar    
   34   16   35 1     
   35   17   18 ar    
   36   17   36 1     
   37   18   37 1     
@<TRIPOS>SUBSTRUCTURE
      1 ****           1
@<TRIPOS>SET
DONOR_HYDROGENS      STATIC     ATOMS    <user>   **** ""
1 28
ATOM$RED        STATIC     ATOMS    COLORGROUP SYSTEM
1 28
