#       Name:                LA7
#       Creating user name   gbret
#       Creation time:       Fri Sep  9 11:15:52 2016


#       File generated by GOLD software.
#

@<TRIPOS>MOLECULE
LA7
    19    19     1
SMALL
NO_CHARGES


@<TRIPOS>ATOM
      1 C1          -0.1816   2.9194  -0.5595 C.3            1 <1>                0.0000
      2 C2          -0.1611   1.4125  -0.5678 C.ar           1 <1>                0.0000
      3 C3          -0.1576   0.7372  -1.7741 C.ar           1 <1>                0.0000
      4 C4          -0.1383  -0.6481  -1.7737 C.ar           1 <1>                0.0000
      5 C5          -0.1231  -1.3087  -0.5492 C.ar           1 <1>                0.0000
      6 O6          -0.1035  -2.6668  -0.4990 O.3            1 <1>                0.0000
      7 C7          -0.1278  -0.5616   0.6194 C.ar           1 <1>                0.0000
      8 C8          -0.1116  -1.2631   1.9531 C.3            1 <1>                0.0000
      9 O9           1.2407  -1.4661   2.3680 O.3            1 <1>                0.0000
     10 N10         -0.1414   0.7561   0.5755 N.ar           1 <1>                0.0000
     11 H11          0.8410   3.2967  -0.5672 H              1 <1>                0.0000
     12 H12         -0.7087   3.2805  -1.4426 H              1 <1>                0.0000
     13 H13         -0.6918   3.2709   0.3373 H              1 <1>                0.0000
     14 H14         -0.1701   1.2831  -2.7059 H              1 <1>                0.0000
     15 H15         -0.1355  -1.2016  -2.7010 H              1 <1>                0.0000
     16 H16          0.7854  -3.0472  -0.4886 H              1 <1>                0.0000
     17 H17         -0.6304  -0.6518   2.6915 H              1 <1>                0.0000
     18 H18         -0.6125  -2.2269   1.8627 H              1 <1>                0.0000
     19 H19          1.3275  -1.9137   3.2208 H              1 <1>                0.0000
@<TRIPOS>BOND
    1    1    2 1     
    2    1   11 1     
    3    1   12 1     
    4    1   13 1     
    5    2   10 ar    
    6    2    3 ar    
    7    3    4 ar    
    8    3   14 1     
    9    4    5 ar    
   10    4   15 1     
   11    5    6 1     
   12    5    7 ar    
   13    6   16 1     
   14    7    8 1     
   15    7   10 ar    
   16    8    9 1     
   17    8   17 1     
   18    8   18 1     
   19    9   19 1     
@<TRIPOS>SUBSTRUCTURE
      1 ****           1
@<TRIPOS>SET
DONOR_HYDROGENS      STATIC     ATOMS    <user>   **** ""
2 16 19
ATOM$RED        STATIC     ATOMS    COLORGROUP SYSTEM
2 16 19
