#       Name:                LAT
#       Creating user name   gbret
#       Creation time:       Fri Sep  9 11:17:22 2016


#       File generated by GOLD software.
#

@<TRIPOS>MOLECULE
LAT
    45    46     1
SMALL
NO_CHARGES


@<TRIPOS>ATOM
      1 O1           3.8268   1.7865   1.1128 O.3            1 <1>                0.0000
      2 C2           3.9322   0.3617   1.1445 C.3            1 <1>                0.0000
      3 C3           2.5612  -0.2444   1.4511 C.3            1 <1>                0.0000
      4 O4           1.6623   0.0432   0.3781 O.3            1 <1>                0.0000
      5 C5           0.3388  -0.4583   0.5755 C.3            1 <1>                0.0000
      6 O6          -0.4797  -0.0942  -0.5379 O.3            1 <1>                0.0000
      7 C7          -0.7679   1.3033  -0.6150 C.3            1 <1>                0.0000
      8 C8          -0.7678   1.7457  -2.0815 C.3            1 <1>                0.0000
      9 O9           0.4920   1.4280  -2.6766 O.3            1 <1>                0.0000
     10 C10         -1.8862   1.0096  -2.8256 C.3            1 <1>                0.0000
     11 O11         -1.6276  -0.3957  -2.8070 O.3            1 <1>                0.0000
     12 C12         -3.2218   1.2933  -2.1333 C.3            1 <1>                0.0000
     13 O13         -4.2622   0.5649  -2.7882 O.3            1 <1>                0.0000
     14 O14         -3.1436   0.8867  -0.7655 O.3            1 <1>                0.0000
     15 C15         -2.1467   1.5756  -0.0081 C.3            1 <1>                0.0000
     16 C16         -2.1736   1.0813   1.4396 C.3            1 <1>                0.0000
     17 O17         -3.4291   1.4164   2.0341 O.3            1 <1>                0.0000
     18 C18          0.3855  -1.9836   0.6976 C.3            1 <1>                0.0000
     19 O19          0.8831  -2.5451  -0.5186 O.3            1 <1>                0.0000
     20 C20          1.3123  -2.3672   1.8553 C.3            1 <1>                0.0000
     21 O21          1.4197  -3.7902   1.9304 O.3            1 <1>                0.0000
     22 C22          2.6972  -1.7611   1.6084 C.3            1 <1>                0.0000
     23 O23          3.2560  -2.3167   0.4163 O.3            1 <1>                0.0000
     24 H24          4.6604   2.2384   0.9233 H              1 <1>                0.0000
     25 H25          4.2804   0.0015   0.1765 H              1 <1>                0.0000
     26 H26          4.6410   0.0670   1.9183 H              1 <1>                0.0000
     27 H27          2.1730   0.1836   2.3753 H              1 <1>                0.0000
     28 H28         -0.0788  -0.0330   1.4881 H              1 <1>                0.0000
     29 H29         -0.0109   1.8622  -0.0649 H              1 <1>                0.0000
     30 H30         -0.9368   2.8211  -2.1380 H              1 <1>                0.0000
     31 H31          0.5624   1.6811  -3.6072 H              1 <1>                0.0000
     32 H32         -1.9283   1.3586  -3.8574 H              1 <1>                0.0000
     33 H33         -2.2975  -0.9249  -3.2612 H              1 <1>                0.0000
     34 H34         -3.4379   2.3605  -2.1836 H              1 <1>                0.0000
     35 H35         -5.1386   0.6974  -2.4015 H              1 <1>                0.0000
     36 H36         -2.3487   2.6465  -0.0305 H              1 <1>                0.0000
     37 H37         -2.0407  -0.0005   1.4567 H              1 <1>                0.0000
     38 H38         -1.3680   1.5552   2.0004 H              1 <1>                0.0000
     39 H39         -3.5167   1.1327   2.9544 H              1 <1>                0.0000
     40 H40         -0.6174  -2.3644   0.8911 H              1 <1>                0.0000
     41 H41          0.3465  -2.3379  -1.2959 H              1 <1>                0.0000
     42 H42          0.9059  -1.9824   2.7906 H              1 <1>                0.0000
     43 H43          0.5771  -4.2409   2.0789 H              1 <1>                0.0000
     44 H44          3.3479  -1.9827   2.4544 H              1 <1>                0.0000
     45 H45          3.3661  -3.2770   0.4440 H              1 <1>                0.0000
@<TRIPOS>BOND
    1    1    2 1     
    2    1   24 1     
    3    2    3 1     
    4    2   25 1     
    5    2   26 1     
    6    3   22 1     
    7    3    4 1     
    8    3   27 1     
    9    4    5 1     
   10    5    6 1     
   11    5   18 1     
   12    5   28 1     
   13    6    7 1     
   14    7   15 1     
   15    7    8 1     
   16    7   29 1     
   17    8    9 1     
   18    8   10 1     
   19    8   30 1     
   20    9   31 1     
   21   10   11 1     
   22   10   12 1     
   23   10   32 1     
   24   11   33 1     
   25   12   13 1     
   26   12   14 1     
   27   12   34 1     
   28   13   35 1     
   29   14   15 1     
   30   15   16 1     
   31   15   36 1     
   32   16   17 1     
   33   16   37 1     
   34   16   38 1     
   35   17   39 1     
   36   18   19 1     
   37   18   20 1     
   38   18   40 1     
   39   19   41 1     
   40   20   21 1     
   41   20   22 1     
   42   20   42 1     
   43   21   43 1     
   44   22   23 1     
   45   22   44 1     
   46   23   45 1     
@<TRIPOS>SUBSTRUCTURE
      1 ****           1
@<TRIPOS>SET
DONOR_HYDROGENS      STATIC     ATOMS    <user>   **** ""
8 24 31 33 35 39 41 43 45
ATOM$RED        STATIC     ATOMS    COLORGROUP SYSTEM
8 24 31 33 35 39 41 43 45
