#       Name:                LCP
#       Creating user name   gbret
#       Creation time:       Fri Sep  9 11:19:45 2016


#       File generated by GOLD software.
#

@<TRIPOS>MOLECULE
LCP
     6     5     1
SMALL
NO_CHARGES


@<TRIPOS>ATOM
      1 O1          -0.1641   1.2396   0.0082 O.3            1 <1>                0.0000
      2 Cl2         -0.1421  -0.3803  -0.0007 Cl             1 <1>                0.0000
      3 O3           0.5174  -0.8320   1.1040 O.2            1 <1>                0.0000
      4 O4          -1.4213  -0.8522   0.0090 O.2            1 <1>                0.0000
      5 O5           0.4961  -0.8200  -1.1225 O.2            1 <1>                0.0000
      6 H6           0.7139   1.6449   0.0020 H              1 <1>                0.0000
@<TRIPOS>BOND
    1    1    2 1     
    2    1    6 1     
    3    2    3 2     
    4    2    4 2     
    5    2    5 2     
@<TRIPOS>SUBSTRUCTURE
      1 ****           1
@<TRIPOS>SET
DONOR_HYDROGENS      STATIC     ATOMS    <user>   **** ""
1 6
ATOM$RED        STATIC     ATOMS    COLORGROUP SYSTEM
1 6
