#       Name:                LDN
#       Creating user name   gbret
#       Creation time:       Fri Sep  9 11:20:41 2016


#       File generated by GOLD software.
#

@<TRIPOS>MOLECULE
LDN
    54    59     1
SMALL
NO_CHARGES


@<TRIPOS>ATOM
      1 C1          -7.0774  -1.8041   0.6435 C.3            1 <1>                0.0000
      2 C2          -5.6419  -1.2742   0.6326 C.3            1 <1>                0.0000
      3 N3          -4.9505  -1.7654  -0.5678 N.3            1 <1>                0.0000
      4 C4          -4.9444  -3.2347  -0.6022 C.3            1 <1>                0.0000
      5 C5          -6.3858  -3.7484  -0.5811 C.3            1 <1>                0.0000
      6 N6          -7.0575  -3.2728   0.6354 N.4            1 <1>                0.0000
      7 H7          -6.5594  -3.6066   1.4469 H              1 <1>                0.0000
      8 H8          -8.0041  -3.6217   0.6550 H              1 <1>                0.0000
      9 C9          -3.6518  -1.2578  -0.6401 C.ar           1 <1>                0.0000
     10 C10         -3.1811  -0.4109   0.3566 C.ar           1 <1>                0.0000
     11 C11         -1.8990   0.0914   0.2871 C.ar           1 <1>                0.0000
     12 C12         -1.0745  -0.2510  -0.7834 C.ar           1 <1>                0.0000
     13 C13         -1.5483  -1.1006  -1.7815 C.ar           1 <1>                0.0000
     14 C14         -2.8294  -1.6046  -1.7057 C.ar           1 <1>                0.0000
     15 C15          0.3056   0.2889  -0.8605 C.2            1 <1>                0.0000
     16 C16          0.7954   1.1453   0.1482 C.2            1 <1>                0.0000
     17 N17          2.0172   1.6180   0.0726 N.2            1 <1>                0.0000
     18 C18          2.8158   1.3018  -0.9506 C.2            1 <1>                0.0000
     19 C19          4.1359   1.6620  -1.2666 C.2            1 <1>                0.0000
     20 C20          4.4594   1.0254  -2.4732 C.2            1 <1>                0.0000
     21 N21          3.4257   0.3278  -2.8730 N.2            1 <1>                0.0000
     22 N22          2.3828   0.4744  -1.9517 N.pl3          1 <1>                0.0000
     23 C23          1.1213  -0.0418  -1.9072 C.2            1 <1>                0.0000
     24 C24          5.0165   2.5442  -0.4775 C.ar           1 <1>                0.0000
     25 C25          5.4471   3.7738  -0.9742 C.ar           1 <1>                0.0000
     26 C26          6.2742   4.5714  -0.1990 C.ar           1 <1>                0.0000
     27 N27          6.6768   4.2184   0.9983 N.ar           1 <1>                0.0000
     28 C28          6.3187   3.0599   1.5618 C.ar           1 <1>                0.0000
     29 C29          6.7647   2.7072   2.8471 C.ar           1 <1>                0.0000
     30 C30          6.3813   1.5200   3.3926 C.ar           1 <1>                0.0000
     31 C31          5.5517   0.6441   2.6974 C.ar           1 <1>                0.0000
     32 C32          5.0999   0.9536   1.4484 C.ar           1 <1>                0.0000
     33 C33          5.4700   2.1686   0.8621 C.ar           1 <1>                0.0000
     34 H34         -7.5877  -1.4526   1.5403 H              1 <1>                0.0000
     35 H35         -7.6047  -1.4430  -0.2396 H              1 <1>                0.0000
     36 H36         -5.6565  -0.1844   0.6236 H              1 <1>                0.0000
     37 H37         -5.1184  -1.6239   1.5225 H              1 <1>                0.0000
     38 H38         -4.4503  -3.5751  -1.5121 H              1 <1>                0.0000
     39 H39         -4.4095  -3.6166   0.2673 H              1 <1>                0.0000
     40 H40         -6.9165  -3.3774  -1.4579 H              1 <1>                0.0000
     41 H41         -6.3832  -4.8383  -0.5923 H              1 <1>                0.0000
     42 H42         -3.8203  -0.1459   1.1859 H              1 <1>                0.0000
     43 H43         -1.5339   0.7499   1.0613 H              1 <1>                0.0000
     44 H44         -0.9110  -1.3671  -2.6117 H              1 <1>                0.0000
     45 H45         -3.1969  -2.2630  -2.4789 H              1 <1>                0.0000
     46 H46          0.1641   1.4124   0.9828 H              1 <1>                0.0000
     47 H47          5.4056   1.0987  -2.9887 H              1 <1>                0.0000
     48 H48          0.7709  -0.7003  -2.6882 H              1 <1>                0.0000
     49 H49          5.1389   4.1021  -1.9558 H              1 <1>                0.0000
     50 H50          6.6003   5.5210  -0.5968 H              1 <1>                0.0000
     51 H51          7.4092   3.3749   3.3996 H              1 <1>                0.0000
     52 H52          6.7265   1.2533   4.3805 H              1 <1>                0.0000
     53 H53          5.2629  -0.2918   3.1525 H              1 <1>                0.0000
     54 H54          4.4569   0.2674   0.9174 H              1 <1>                0.0000
@<TRIPOS>BOND
    1    1    6 1     
    2    1    2 1     
    3    1   34 1     
    4    1   35 1     
    5    2    3 1     
    6    2   36 1     
    7    2   37 1     
    8    3    4 1     
    9    3    9 1     
   10    4    5 1     
   11    4   38 1     
   12    4   39 1     
   13    5    6 1     
   14    5   40 1     
   15    5   41 1     
   16    6    7 1     
   17    6    8 1     
   18    9   14 ar    
   19    9   10 ar    
   20   10   11 ar    
   21   10   42 1     
   22   11   12 ar    
   23   11   43 1     
   24   12   13 ar    
   25   12   15 1     
   26   13   14 ar    
   27   13   44 1     
   28   14   45 1     
   29   15   23 2     
   30   15   16 1     
   31   16   17 2     
   32   16   46 1     
   33   17   18 1     
   34   18   22 1     
   35   18   19 2     
   36   19   20 1     
   37   19   24 1     
   38   20   21 2     
   39   20   47 1     
   40   21   22 1     
   41   22   23 1     
   42   23   48 1     
   43   24   33 ar    
   44   24   25 ar    
   45   25   26 ar    
   46   25   49 1     
   47   26   27 ar    
   48   26   50 1     
   49   27   28 ar    
   50   28   33 ar    
   51   28   29 ar    
   52   29   30 ar    
   53   29   51 1     
   54   30   31 ar    
   55   30   52 1     
   56   31   32 ar    
   57   31   53 1     
   58   32   33 ar    
   59   32   54 1     
@<TRIPOS>SUBSTRUCTURE
      1 ****           1
@<TRIPOS>SET
DONOR_HYDROGENS      STATIC     ATOMS    <user>   **** ""
2 7 8
ATOM$RED        STATIC     ATOMS    COLORGROUP SYSTEM
2 7 8
