#       Name:                LEE
#       Creating user name   gbret
#       Creation time:       Fri Sep  9 11:21:35 2016


#       File generated by GOLD software.
#

@<TRIPOS>MOLECULE
LEE
    54    53     1
SMALL
NO_CHARGES


@<TRIPOS>ATOM
      1 C1           5.2203   6.9508   0.7596 C.3            1 <1>                0.0000
      2 C2           5.2411   5.4209   0.7512 C.3            1 <1>                0.0000
      3 C3           3.8057   4.8914   0.7621 C.3            1 <1>                0.0000
      4 C4           3.8264   3.3615   0.7537 C.3            1 <1>                0.0000
      5 C5           2.3911   2.8319   0.7645 C.3            1 <1>                0.0000
      6 C6           2.4118   1.3021   0.7561 C.3            1 <1>                0.0000
      7 S7           0.7100   0.6742   0.7690 S.3            1 <1>                0.0000
      8 C8           0.9388  -1.1253   0.7571 C.3            1 <1>                0.0000
      9 C9          -0.4277  -1.8132   0.7665 C.3            1 <1>                0.0000
     10 N10         -1.1383  -1.5047  -0.4769 N.am           1 <1>                0.0000
     11 C11         -2.4849  -1.5479  -0.5121 C.2            1 <1>                0.0000
     12 O12         -3.1084  -1.8422   0.4857 O.2            1 <1>                0.0000
     13 C13         -3.2158  -1.2306  -1.7912 C.3            1 <1>                0.0000
     14 C14         -4.7235  -1.3519  -1.5606 C.3            1 <1>                0.0000
     15 C15         -5.4656  -1.0297  -2.8592 C.3            1 <1>                0.0000
     16 N16         -5.1443  -2.0446  -3.8715 N.4            1 <1>                0.0000
     17 H17         -5.4285  -2.9536  -3.5384 H              1 <1>                0.0000
     18 H18         -5.6337  -1.8321  -4.7279 H              1 <1>                0.0000
     19 H19         -4.1501  -2.0451  -4.0436 H              1 <1>                0.0000
     20 C20         -6.9505  -1.0289  -2.6023 C.2            1 <1>                0.0000
     21 O21         -7.4530  -0.1420  -1.9334 O.co2          1 <1>                0.0000
     22 O22         -7.6494  -1.9152  -3.0634 O.co2          1 <1>                0.0000
     23 C23         -0.2388  -3.3040   0.8805 C.2            1 <1>                0.0000
     24 O24         -0.6566  -4.0366   0.0090 O.2            1 <1>                0.0000
     25 N25          0.3944  -3.8231   1.9511 N.am           1 <1>                0.0000
     26 C26          0.5780  -5.2723   2.0619 C.3            1 <1>                0.0000
     27 C27          1.3089  -5.5897   3.3410 C.2            1 <1>                0.0000
     28 O28          1.6453  -4.6888   4.0905 O.co2          1 <1>                0.0000
     29 O29          1.5639  -6.7473   3.6263 O.co2          1 <1>                0.0000
     30 H30          6.2429   7.3281   0.7519 H              1 <1>                0.0000
     31 H31          4.6931   7.3118  -0.1234 H              1 <1>                0.0000
     32 H32          4.7101   7.3023   1.6564 H              1 <1>                0.0000
     33 H33          5.7513   5.0694  -0.1456 H              1 <1>                0.0000
     34 H34          5.7683   5.0599   1.6343 H              1 <1>                0.0000
     35 H35          3.2955   5.2429   1.6589 H              1 <1>                0.0000
     36 H36          3.2785   5.2524  -0.1210 H              1 <1>                0.0000
     37 H37          4.3366   3.0100  -0.1431 H              1 <1>                0.0000
     38 H38          4.3536   3.0004   1.6367 H              1 <1>                0.0000
     39 H39          1.8809   3.1835   1.6613 H              1 <1>                0.0000
     40 H40          1.8639   3.1930  -0.1185 H              1 <1>                0.0000
     41 H41          2.9220   0.9506  -0.1407 H              1 <1>                0.0000
     42 H42          2.9390   0.9410   1.6392 H              1 <1>                0.0000
     43 H43          1.4859  -1.4160  -0.1397 H              1 <1>                0.0000
     44 H44          1.5029  -1.4256   1.6402 H              1 <1>                0.0000
     45 H45         -1.0092  -1.4547   1.6158 H              1 <1>                0.0000
     46 H46         -0.6396  -1.2694  -1.2750 H              1 <1>                0.0000
     47 H47         -2.9767  -0.2141  -2.1037 H              1 <1>                0.0000
     48 H48         -2.9095  -1.9311  -2.5681 H              1 <1>                0.0000
     49 H49         -4.9626  -2.3684  -1.2481 H              1 <1>                0.0000
     50 H50         -5.0298  -0.6514  -0.7837 H              1 <1>                0.0000
     51 H51         -5.1586  -0.0477  -3.2191 H              1 <1>                0.0000
     52 H52          0.7285  -3.2372   2.6481 H              1 <1>                0.0000
     53 H53         -0.3956  -5.7625   2.0686 H              1 <1>                0.0000
     54 H54          1.1595  -5.6309   1.2126 H              1 <1>                0.0000
@<TRIPOS>BOND
    1    1    2 1     
    2    1   30 1     
    3    1   31 1     
    4    1   32 1     
    5    2    3 1     
    6    2   33 1     
    7    2   34 1     
    8    3    4 1     
    9    3   35 1     
   10    3   36 1     
   11    4    5 1     
   12    4   37 1     
   13    4   38 1     
   14    5    6 1     
   15    5   39 1     
   16    5   40 1     
   17    6    7 1     
   18    6   41 1     
   19    6   42 1     
   20    7    8 1     
   21    8    9 1     
   22    8   43 1     
   23    8   44 1     
   24    9   10 1     
   25    9   23 1     
   26    9   45 1     
   27   10   11 am    
   28   10   46 1     
   29   11   12 2     
   30   11   13 1     
   31   13   14 1     
   32   13   47 1     
   33   13   48 1     
   34   14   15 1     
   35   14   49 1     
   36   14   50 1     
   37   15   16 1     
   38   15   20 1     
   39   15   51 1     
   40   16   17 1     
   41   16   18 1     
   42   16   19 1     
   43   20   21 ar    
   44   20   22 ar    
   45   23   24 2     
   46   23   25 am    
   47   25   26 1     
   48   25   52 1     
   49   26   27 1     
   50   26   53 1     
   51   26   54 1     
   52   27   28 ar    
   53   27   29 ar    
@<TRIPOS>SUBSTRUCTURE
      1 ****           1
@<TRIPOS>SET
DONOR_HYDROGENS      STATIC     ATOMS    <user>   **** ""
5 46 17 18 19 52
ATOM$RED        STATIC     ATOMS    COLORGROUP SYSTEM
5 46 17 18 19 52
