#       Name:                LEH
#       Creating user name   gbret
#       Creation time:       Fri Sep  9 11:21:47 2016


#       File generated by GOLD software.
#

@<TRIPOS>MOLECULE
LEH
    63    63     1
SMALL
NO_CHARGES


@<TRIPOS>ATOM
      1 C1          -1.3214   6.8714  -4.9418 C.3            1 <1>                0.0000
      2 C2          -2.1181   7.2452  -3.6903 C.3            1 <1>                0.0000
      3 C3          -2.1397   8.7672  -3.5351 C.3            1 <1>                0.0000
      4 C4          -3.5511   6.7259  -3.8239 C.3            1 <1>                0.0000
      5 C5          -3.5402   5.1960  -3.8336 C.3            1 <1>                0.0000
      6 N6          -3.0520   4.7028  -2.5434 N.am           1 <1>                0.0000
      7 C7          -2.4822   3.4843  -2.4595 C.2            1 <1>                0.0000
      8 O8          -2.3737   2.7961  -3.4522 O.2            1 <1>                0.0000
      9 C9          -1.9801   2.9771  -1.1323 C.3            1 <1>                0.0000
     10 C10         -1.3835   1.5798  -1.3130 C.3            1 <1>                0.0000
     11 C11         -0.8736   1.0648   0.0345 C.3            1 <1>                0.0000
     12 C12         -0.2770  -0.3324  -0.1461 C.3            1 <1>                0.0000
     13 C13          0.2328  -0.8474   1.2013 C.3            1 <1>                0.0000
     14 C14          0.8294  -2.2447   1.0207 C.3            1 <1>                0.0000
     15 C15          1.3392  -2.7597   2.3682 C.3            1 <1>                0.0000
     16 C16          1.9358  -4.1570   2.1875 C.3            1 <1>                0.0000
     17 C17          2.4457  -4.6720   3.5350 C.3            1 <1>                0.0000
     18 C18          3.0423  -6.0692   3.3543 C.3            1 <1>                0.0000
     19 C19          3.5521  -6.5842   4.7018 C.3            1 <1>                0.0000
     20 N20          4.1234  -7.9221   4.5288 N.pl3          1 <1>                0.0000
     21 C21          3.4525  -9.1110   4.6297 C.2            1 <1>                0.0000
     22 C22          4.3516 -10.0865   4.3985 C.2            1 <1>                0.0000
     23 N23          5.5391  -9.5091   4.1628 N.2            1 <1>                0.0000
     24 C24          5.4089  -8.2126   4.2342 C.2            1 <1>                0.0000
     25 C25         -4.9381   4.6852  -4.0703 C.2            1 <1>                0.0000
     26 O26         -5.4618   4.8257  -5.1624 O.co2          1 <1>                0.0000
     27 O27         -5.5454   4.1314  -3.1697 O.co2          1 <1>                0.0000
     28 H28         -0.3005   7.2414  -4.8466 H              1 <1>                0.0000
     29 H29         -1.3061   5.7872  -5.0524 H              1 <1>                0.0000
     30 H30         -1.7900   7.3194  -5.8181 H              1 <1>                0.0000
     31 H31         -1.6495   6.7973  -2.8140 H              1 <1>                0.0000
     32 H32         -2.5272   9.2200  -4.4477 H              1 <1>                0.0000
     33 H33         -2.7795   9.0377  -2.6951 H              1 <1>                0.0000
     34 H34         -1.1276   9.1281  -3.3519 H              1 <1>                0.0000
     35 H35         -4.1458   7.0797  -2.9817 H              1 <1>                0.0000
     36 H36         -3.9850   7.0921  -4.7543 H              1 <1>                0.0000
     37 H37         -2.8846   4.8423  -4.6294 H              1 <1>                0.0000
     38 H38         -3.1389   5.2533  -1.7495 H              1 <1>                0.0000
     39 H39         -1.2142   3.6527  -0.7513 H              1 <1>                0.0000
     40 H40         -2.8077   2.9300  -0.4246 H              1 <1>                0.0000
     41 H41         -2.1493   0.9042  -1.6939 H              1 <1>                0.0000
     42 H42         -0.5558   1.6269  -2.0207 H              1 <1>                0.0000
     43 H43         -0.1078   1.7404   0.4155 H              1 <1>                0.0000
     44 H44         -1.7013   1.0178   0.7422 H              1 <1>                0.0000
     45 H45         -1.0429  -1.0080  -0.5271 H              1 <1>                0.0000
     46 H46          0.5506  -0.2854  -0.8539 H              1 <1>                0.0000
     47 H47          0.9987  -0.1718   1.5823 H              1 <1>                0.0000
     48 H48         -0.5949  -0.8945   1.9091 H              1 <1>                0.0000
     49 H49          0.0636  -2.9203   0.6397 H              1 <1>                0.0000
     50 H50          1.6571  -2.1976   0.3130 H              1 <1>                0.0000
     51 H51          2.1051  -2.0841   2.7491 H              1 <1>                0.0000
     52 H52          0.5116  -2.8068   3.0759 H              1 <1>                0.0000
     53 H53          1.1700  -4.8325   1.8065 H              1 <1>                0.0000
     54 H54          2.7635  -4.1099   1.4798 H              1 <1>                0.0000
     55 H55          3.2115  -3.9964   3.9160 H              1 <1>                0.0000
     56 H56          1.6180  -4.7190   4.2427 H              1 <1>                0.0000
     57 H57          2.2764  -6.7448   2.9733 H              1 <1>                0.0000
     58 H58          3.8699  -6.0222   2.6466 H              1 <1>                0.0000
     59 H59          4.3180  -5.9086   5.0828 H              1 <1>                0.0000
     60 H60          2.7245  -6.6313   5.4095 H              1 <1>                0.0000
     61 H61          2.4038  -9.2416   4.8524 H              1 <1>                0.0000
     62 H62          4.1516 -11.1479   4.4022 H              1 <1>                0.0000
     63 H63          6.1996  -7.4916   4.0885 H              1 <1>                0.0000
@<TRIPOS>BOND
    1    1    2 1     
    2    1   28 1     
    3    1   29 1     
    4    1   30 1     
    5    2    3 1     
    6    2    4 1     
    7    2   31 1     
    8    3   32 1     
    9    3   33 1     
   10    3   34 1     
   11    4    5 1     
   12    4   35 1     
   13    4   36 1     
   14    5    6 1     
   15    5   25 1     
   16    5   37 1     
   17    6    7 am    
   18    6   38 1     
   19    7    8 2     
   20    7    9 1     
   21    9   10 1     
   22    9   39 1     
   23    9   40 1     
   24   10   11 1     
   25   10   41 1     
   26   10   42 1     
   27   11   12 1     
   28   11   43 1     
   29   11   44 1     
   30   12   13 1     
   31   12   45 1     
   32   12   46 1     
   33   13   14 1     
   34   13   47 1     
   35   13   48 1     
   36   14   15 1     
   37   14   49 1     
   38   14   50 1     
   39   15   16 1     
   40   15   51 1     
   41   15   52 1     
   42   16   17 1     
   43   16   53 1     
   44   16   54 1     
   45   17   18 1     
   46   17   55 1     
   47   17   56 1     
   48   18   19 1     
   49   18   57 1     
   50   18   58 1     
   51   19   20 1     
   52   19   59 1     
   53   19   60 1     
   54   20   24 1     
   55   20   21 1     
   56   21   22 2     
   57   21   61 1     
   58   22   23 1     
   59   22   62 1     
   60   23   24 2     
   61   24   63 1     
   62   25   26 ar    
   63   25   27 ar    
@<TRIPOS>SUBSTRUCTURE
      1 ****           1
@<TRIPOS>SET
DONOR_HYDROGENS      STATIC     ATOMS    <user>   **** ""
1 38
ATOM$RED        STATIC     ATOMS    COLORGROUP SYSTEM
1 38
