#       Name:                LF8
#       Creating user name   gbret
#       Creation time:       Fri Sep  9 11:22:56 2016


#       File generated by GOLD software.
#

@<TRIPOS>MOLECULE
LF8
    61    63     1
SMALL
NO_CHARGES


@<TRIPOS>ATOM
      1 C1          -0.1326   7.4096   1.1636 C.3            1 <1>                0.0000
      2 C2          -0.1314   5.9073   1.0453 C.ar           1 <1>                0.0000
      3 C3          -1.3011   5.2400   0.7284 C.ar           1 <1>                0.0000
      4 C4          -1.3058   3.8644   0.6187 C.ar           1 <1>                0.0000
      5 C5          -0.1290   3.1473   0.8274 C.ar           1 <1>                0.0000
      6 C6           1.0463   3.8246   1.1459 C.ar           1 <1>                0.0000
      7 C7           1.0404   5.2012   1.2483 C.ar           1 <1>                0.0000
      8 C8           2.3107   5.9352   1.5927 C.3            1 <1>                0.0000
      9 C9          -0.1279   1.6683   0.7114 C.ar           1 <1>                0.0000
     10 N10          0.4890   0.9375   1.6318 N.ar           1 <1>                0.0000
     11 C11          0.5174  -0.3787   1.5719 C.ar           1 <1>                0.0000
     12 C12          1.2339  -1.1550   2.6466 C.3            1 <1>                0.0000
     13 C13         -0.0996  -1.0573   0.5401 C.ar           1 <1>                0.0000
     14 C14         -0.0592  -2.5628   0.4861 C.3            1 <1>                0.0000
     15 O15          1.2806  -3.0113   0.7001 O.3            1 <1>                0.0000
     16 C16          1.5942  -4.2402   0.0417 C.3            1 <1>                0.0000
     17 C17          1.4103  -4.0715  -1.4678 C.3            1 <1>                0.0000
     18 C18          3.0457  -4.6221   0.3390 C.3            1 <1>                0.0000
     19 C19          0.6626  -5.3428   0.5489 C.3            1 <1>                0.0000
     20 C20         -0.9554  -3.1281   1.5577 C.2            1 <1>                0.0000
     21 O21         -2.1591  -2.9409   1.5072 O.co2          1 <1>                0.0000
     22 O22         -0.4767  -3.7727   2.4753 O.co2          1 <1>                0.0000
     23 C23         -0.7630  -0.3314  -0.4543 C.ar           1 <1>                0.0000
     24 C24         -0.7782   1.0611  -0.3576 C.ar           1 <1>                0.0000
     25 C25         -1.4785   1.8934  -1.4006 C.3            1 <1>                0.0000
     26 C26         -1.4378  -1.0235  -1.5798 C.ar           1 <1>                0.0000
     27 C27         -0.6899  -1.7581  -2.4980 C.ar           1 <1>                0.0000
     28 C28         -1.3222  -2.4000  -3.5431 C.ar           1 <1>                0.0000
     29 C29         -2.6973  -2.3152  -3.6803 C.ar           1 <1>                0.0000
     30 Cl30        -3.4869  -3.1255  -4.9969 Cl             1 <1>                0.0000
     31 C31         -3.4447  -1.5866  -2.7707 C.ar           1 <1>                0.0000
     32 C32         -2.8223  -0.9459  -1.7189 C.ar           1 <1>                0.0000
     33 H33          0.0880   7.8508   0.1916 H              1 <1>                0.0000
     34 H34         -1.1126   7.7466   1.5016 H              1 <1>                0.0000
     35 H35          0.6258   7.7180   1.8832 H              1 <1>                0.0000
     36 H36         -2.2124   5.7967   0.5669 H              1 <1>                0.0000
     37 H37         -2.2196   3.3445   0.3720 H              1 <1>                0.0000
     38 H38          1.9608   3.2739   1.3090 H              1 <1>                0.0000
     39 H39          2.8444   6.1874   0.6763 H              1 <1>                0.0000
     40 H40          2.0668   6.8490   2.1344 H              1 <1>                0.0000
     41 H41          2.9397   5.3000   2.2163 H              1 <1>                0.0000
     42 H42          0.5154  -1.4848   3.3969 H              1 <1>                0.0000
     43 H43          1.7213  -2.0236   2.2037 H              1 <1>                0.0000
     44 H44          1.9834  -0.5181   3.1164 H              1 <1>                0.0000
     45 H45         -0.4038  -2.9007  -0.4912 H              1 <1>                0.0000
     46 H46          2.0740  -3.2860  -1.8292 H              1 <1>                0.0000
     47 H47          1.6495  -5.0089  -1.9700 H              1 <1>                0.0000
     48 H48          0.3762  -3.7995  -1.6797 H              1 <1>                0.0000
     49 H49          3.1767  -4.7423   1.4144 H              1 <1>                0.0000
     50 H50          3.2849  -5.5595  -0.1632 H              1 <1>                0.0000
     51 H51          3.7094  -3.8366  -0.0223 H              1 <1>                0.0000
     52 H52         -0.3714  -5.0708   0.3371 H              1 <1>                0.0000
     53 H53          0.9019  -6.2802   0.0467 H              1 <1>                0.0000
     54 H54          0.7937  -5.4630   1.6243 H              1 <1>                0.0000
     55 H55         -2.5272   2.0110  -1.1276 H              1 <1>                0.0000
     56 H56         -1.0063   2.8740  -1.4600 H              1 <1>                0.0000
     57 H57         -1.4084   1.3972  -2.3686 H              1 <1>                0.0000
     58 H58          0.3828  -1.8246  -2.3920 H              1 <1>                0.0000
     59 H59         -0.7434  -2.9693  -4.2554 H              1 <1>                0.0000
     60 H60         -4.5170  -1.5231  -2.8821 H              1 <1>                0.0000
     61 H61         -3.4062  -0.3778  -1.0099 H              1 <1>                0.0000
@<TRIPOS>BOND
    1    1    2 1     
    2    1   33 1     
    3    1   34 1     
    4    1   35 1     
    5    2    7 ar    
    6    2    3 ar    
    7    3    4 ar    
    8    3   36 1     
    9    4    5 ar    
   10    4   37 1     
   11    5    6 ar    
   12    5    9 1     
   13    6    7 ar    
   14    6   38 1     
   15    7    8 1     
   16    8   39 1     
   17    8   40 1     
   18    8   41 1     
   19    9   24 ar    
   20    9   10 ar    
   21   10   11 ar    
   22   11   12 1     
   23   11   13 ar    
   24   12   42 1     
   25   12   43 1     
   26   12   44 1     
   27   13   14 1     
   28   13   23 ar    
   29   14   15 1     
   30   14   20 1     
   31   14   45 1     
   32   15   16 1     
   33   16   17 1     
   34   16   18 1     
   35   16   19 1     
   36   17   46 1     
   37   17   47 1     
   38   17   48 1     
   39   18   49 1     
   40   18   50 1     
   41   18   51 1     
   42   19   52 1     
   43   19   53 1     
   44   19   54 1     
   45   20   21 ar    
   46   20   22 ar    
   47   23   24 ar    
   48   23   26 1     
   49   24   25 1     
   50   25   55 1     
   51   25   56 1     
   52   25   57 1     
   53   26   32 ar    
   54   26   27 ar    
   55   27   28 ar    
   56   27   58 1     
   57   28   29 ar    
   58   28   59 1     
   59   29   30 1     
   60   29   31 ar    
   61   31   32 ar    
   62   31   60 1     
   63   32   61 1     
@<TRIPOS>SUBSTRUCTURE
      1 ****           1
