#       Name:                LI5
#       Creating user name   gbret
#       Creation time:       Fri Sep  9 11:27:32 2016


#       File generated by GOLD software.
#

@<TRIPOS>MOLECULE
LI5
    26    25     1
SMALL
NO_CHARGES


@<TRIPOS>ATOM
      1 C1           2.6635   4.2196  -0.0081 C.3            1 <1>                0.0000
      2 C2           2.6843   2.6897  -0.0165 C.3            1 <1>                0.0000
      3 C3           1.2705   2.1681  -0.0058 C.2            1 <1>                0.0000
      4 O4           0.3419   2.9404   0.0072 O.2            1 <1>                0.0000
      5 C5           1.0187   0.7032  -0.0112 C.2            1 <1>                0.0000
      6 O6           1.9473  -0.0692  -0.0243 O.2            1 <1>                0.0000
      7 C7          -0.3951   0.1815  -0.0006 C.3            1 <1>                0.0000
      8 C8          -0.3743  -1.3483  -0.0090 C.3            1 <1>                0.0000
      9 O9           0.2131  -1.8234   1.2040 O.3            1 <1>                0.0000
     10 C10         -1.8054  -1.8771  -0.1239 C.3            1 <1>                0.0000
     11 O11         -1.7787  -3.3004  -0.2489 O.3            1 <1>                0.0000
     12 P12         -3.1108  -4.1933  -0.3914 P.3            1 <1>                0.0000
     13 O13         -2.7317  -5.6098  -0.8780 O.co2          1 <1>                0.0000
     14 O14         -3.8144  -4.2912   0.9806 O.co2          1 <1>                0.0000
     15 H15          3.6861   4.5969  -0.0158 H              1 <1>                0.0000
     16 H16          2.1363   4.5806  -0.8911 H              1 <1>                0.0000
     17 H17          2.1533   4.5711   0.8887 H              1 <1>                0.0000
     18 H18          3.1945   2.3382  -0.9133 H              1 <1>                0.0000
     19 H19          3.2115   2.3287   0.8666 H              1 <1>                0.0000
     20 H20         -0.9053   0.5331   0.8962 H              1 <1>                0.0000
     21 H21         -0.9223   0.5426  -0.8836 H              1 <1>                0.0000
     22 H22          0.2119  -1.6990  -0.8583 H              1 <1>                0.0000
     23 H23         -0.2576  -1.5488   2.0028 H              1 <1>                0.0000
     24 H24         -2.3675  -1.6013   0.7684 H              1 <1>                0.0000
     25 H25         -2.2833  -1.4441  -1.0026 H              1 <1>                0.0000
     26 H26         -3.9875  -3.5889  -1.3309 H              1 <1>                0.0000
@<TRIPOS>BOND
    1    1    2 1     
    2    1   15 1     
    3    1   16 1     
    4    1   17 1     
    5    2    3 1     
    6    2   18 1     
    7    2   19 1     
    8    3    4 2     
    9    3    5 1     
   10    5    6 2     
   11    5    7 1     
   12    7    8 1     
   13    7   20 1     
   14    7   21 1     
   15    8    9 1     
   16    8   10 1     
   17    8   22 1     
   18    9   23 1     
   19   10   11 1     
   20   10   24 1     
   21   10   25 1     
   22   11   12 1     
   23   12   13 ar    
   24   12   14 ar    
   25   12   26 1     
@<TRIPOS>SUBSTRUCTURE
      1 ****           1
@<TRIPOS>SET
DONOR_HYDROGENS      STATIC     ATOMS    <user>   **** ""
1 23
ATOM$RED        STATIC     ATOMS    COLORGROUP SYSTEM
1 23
