#       Name:                LLF
#       Creating user name   gbret
#       Creation time:       Fri Sep  9 11:32:25 2016


#       File generated by GOLD software.
#

@<TRIPOS>MOLECULE
LLF
    31    31     1
SMALL
NO_CHARGES


@<TRIPOS>ATOM
      1 C1          -0.2683   4.0019  -1.2586 C.3            1 <1>                0.0000
      2 C2          -0.2478   2.4950  -1.2669 C.ar           1 <1>                0.0000
      3 N3          -0.2445   1.8507  -2.4159 N.ar           1 <1>                0.0000
      4 C4          -0.2264   0.5335  -2.4820 C.ar           1 <1>                0.0000
      5 C5          -0.2101  -0.2366  -1.3373 C.ar           1 <1>                0.0000
      6 C6          -0.1891  -1.7407  -1.4284 C.3            1 <1>                0.0000
      7 O7          -0.1899  -2.1348  -2.8020 O.3            1 <1>                0.0000
      8 P8          -0.1702  -3.6744  -3.2725 P.3            1 <1>                0.0000
      9 O9          -1.4970  -4.3752  -2.8219 O.co2          1 <1>                0.0000
     10 O10         -0.0478  -3.7420  -4.8329 O.co2          1 <1>                0.0000
     11 O11          1.0533  -4.4040  -2.6206 O.co2          1 <1>                0.0000
     12 C12         -0.2129   0.3990  -0.0903 C.ar           1 <1>                0.0000
     13 C13         -0.1954  -0.3835   1.1609 C.2            1 <1>                0.0000
     14 N14         -0.1983   0.2230   2.3030 N.2            1 <1>                0.0000
     15 C15         -0.1809  -0.5538   3.5450 C.3            1 <1>                0.0000
     16 C16          1.1266  -0.2887   4.2941 C.3            1 <1>                0.0000
     17 F17          2.2085  -0.6674   3.4920 F              1 <1>                0.0000
     18 F18          1.2236   1.0741   4.5950 F              1 <1>                0.0000
     19 C19         -0.2270   1.8034  -0.0642 C.ar           1 <1>                0.0000
     20 O20         -0.2299   2.4720   1.1169 O.3            1 <1>                0.0000
     21 H21          0.7543   4.3792  -1.2663 H              1 <1>                0.0000
     22 H22         -0.7954   4.3630  -2.1417 H              1 <1>                0.0000
     23 H23         -0.7785   4.3534  -0.3618 H              1 <1>                0.0000
     24 H24         -0.2248   0.0500  -3.4477 H              1 <1>                0.0000
     25 H25          0.7086  -2.1217  -0.9416 H              1 <1>                0.0000
     26 H26         -1.0711  -2.1470  -0.9333 H              1 <1>                0.0000
     27 H27         -0.1802  -1.4627   1.1227 H              1 <1>                0.0000
     28 H28         -1.0239  -0.2587   4.1699 H              1 <1>                0.0000
     29 H29         -0.2565  -1.6156   3.3106 H              1 <1>                0.0000
     30 H30          1.1395  -0.8667   5.2181 H              1 <1>                0.0000
     31 H31          0.6527   2.6747   1.4563 H              1 <1>                0.0000
@<TRIPOS>BOND
    1    1    2 1     
    2    1   21 1     
    3    1   22 1     
    4    1   23 1     
    5    2   19 ar    
    6    2    3 ar    
    7    3    4 ar    
    8    4    5 ar    
    9    4   24 1     
   10    5    6 1     
   11    5   12 ar    
   12    6    7 1     
   13    6   25 1     
   14    6   26 1     
   15    7    8 1     
   16    8    9 ar    
   17    8   10 ar    
   18    8   11 ar    
   19   12   13 1     
   20   12   19 ar    
   21   13   14 2     
   22   13   27 1     
   23   14   15 1     
   24   15   16 1     
   25   15   28 1     
   26   15   29 1     
   27   16   17 1     
   28   16   18 1     
   29   16   30 1     
   30   19   20 1     
   31   20   31 1     
@<TRIPOS>SUBSTRUCTURE
      1 ****           1
@<TRIPOS>SET
DONOR_HYDROGENS      STATIC     ATOMS    <user>   **** ""
1 31
ATOM$RED        STATIC     ATOMS    COLORGROUP SYSTEM
1 31
