#       Name:                LNZ
#       Creating user name   gbret
#       Creation time:       Fri Sep  9 11:36:48 2016


#       File generated by GOLD software.
#

@<TRIPOS>MOLECULE
LNZ
    42    43     1
SMALL
NO_CHARGES


@<TRIPOS>ATOM
      1 C1           0.3545   3.9000  -1.7203 C.3            1 <1>                0.0000
      2 O2           0.1098   2.4941  -1.6445 O.3            1 <1>                0.0000
      3 C3           0.4942   1.8625  -0.5070 C.ar           1 <1>                0.0000
      4 C4           1.0900   2.5824   0.5185 C.ar           1 <1>                0.0000
      5 C5           1.4830   1.9462   1.6760 C.ar           1 <1>                0.0000
      6 C6           2.1294   2.7361   2.7848 C.3            1 <1>                0.0000
      7 C7           1.2835   0.5703   1.8253 C.ar           1 <1>                0.0000
      8 C8           0.6851  -0.1621   0.8004 C.ar           1 <1>                0.0000
      9 C9           0.2839   0.4827  -0.3659 C.ar           1 <1>                0.0000
     10 C10         -0.3512  -0.2853  -1.4562 C.2            1 <1>                0.0000
     11 C11          0.1355  -1.4394  -1.9877 C.2            1 <1>                0.0000
     12 C12         -0.6292  -1.9758  -2.9947 C.2            1 <1>                0.0000
     13 C13         -1.7513  -1.2646  -3.2976 C.2            1 <1>                0.0000
     14 S14         -1.8543   0.1497  -2.2580 S.3            1 <1>                0.0000
     15 C15         -2.7044  -1.6180  -4.3062 C.1            1 <1>                0.0000
     16 C16         -3.4858  -1.9077  -5.1331 C.1            1 <1>                0.0000
     17 C17         -4.4656  -2.2709  -6.1699 C.3            1 <1>                0.0000
     18 O18         -5.5081  -1.2941  -6.2033 O.3            1 <1>                0.0000
     19 C19          1.7067  -0.1069   3.0671 C.2            1 <1>                0.0000
     20 O20          2.1225   0.5464   4.0044 O.2            1 <1>                0.0000
     21 N21          1.6320  -1.4492   3.1616 N.am           1 <1>                0.0000
     22 S22          2.1067  -2.2088   4.5545 S.o2           1 <1>                0.0000
     23 C23          0.9259  -1.6366   5.8071 C.3            1 <1>                0.0000
     24 O24          1.9152  -3.5904   4.2830 O.2            1 <1>                0.0000
     25 O25          3.4021  -1.6861   4.8148 O.2            1 <1>                0.0000
     26 H26          1.4242   4.0881  -1.6280 H              1 <1>                0.0000
     27 H27          0.0002   4.2793  -2.6788 H              1 <1>                0.0000
     28 H28         -0.1742   4.4049  -0.9119 H              1 <1>                0.0000
     29 H29          1.2467   3.6454   0.4090 H              1 <1>                0.0000
     30 H30          1.3768   3.0044   3.5262 H              1 <1>                0.0000
     31 H31          2.9050   2.1326   3.2563 H              1 <1>                0.0000
     32 H32          2.5739   3.6425   2.3738 H              1 <1>                0.0000
     33 H33          0.5301  -1.2250   0.9129 H              1 <1>                0.0000
     34 H34          1.0515  -1.8975  -1.6450 H              1 <1>                0.0000
     35 H35         -0.3620  -2.8888  -3.5062 H              1 <1>                0.0000
     36 H36         -3.9708  -2.3076  -7.1404 H              1 <1>                0.0000
     37 H37         -4.8907  -3.2483  -5.9416 H              1 <1>                0.0000
     38 H38         -6.1908  -1.4699  -6.8651 H              1 <1>                0.0000
     39 H39          1.3003  -1.9704   2.4138 H              1 <1>                0.0000
     40 H40         -0.0838  -1.9220   5.5118 H              1 <1>                0.0000
     41 H41          1.1659  -2.0923   6.7677 H              1 <1>                0.0000
     42 H42          0.9860  -0.5518   5.8944 H              1 <1>                0.0000
@<TRIPOS>BOND
    1    1    2 1     
    2    1   26 1     
    3    1   27 1     
    4    1   28 1     
    5    2    3 1     
    6    3    9 ar    
    7    3    4 ar    
    8    4    5 ar    
    9    4   29 1     
   10    5    6 1     
   11    5    7 ar    
   12    6   30 1     
   13    6   31 1     
   14    6   32 1     
   15    7    8 ar    
   16    7   19 1     
   17    8    9 ar    
   18    8   33 1     
   19    9   10 1     
   20   10   14 1     
   21   10   11 2     
   22   11   12 1     
   23   11   34 1     
   24   12   13 2     
   25   12   35 1     
   26   13   14 1     
   27   13   15 1     
   28   15   16 3     
   29   16   17 1     
   30   17   18 1     
   31   17   36 1     
   32   17   37 1     
   33   18   38 1     
   34   19   20 2     
   35   19   21 am    
   36   21   22 1     
   37   21   39 1     
   38   22   23 1     
   39   22   24 2     
   40   22   25 2     
   41   23   40 1     
   42   23   41 1     
   43   23   42 1     
@<TRIPOS>SUBSTRUCTURE
      1 ****           1
@<TRIPOS>SET
DONOR_HYDROGENS      STATIC     ATOMS    <user>   **** ""
2 38 39
ATOM$RED        STATIC     ATOMS    COLORGROUP SYSTEM
2 38 39
