#       Name:                LWM
#       Creating user name   gbret
#       Creation time:       Fri Sep  9 11:45:58 2016


#       File generated by GOLD software.
#

@<TRIPOS>MOLECULE
LWM
    40    41     1
SMALL
NO_CHARGES


@<TRIPOS>ATOM
      1 N1           3.4398   3.6166   0.4091 N.pl3          1 <1>                0.0000
      2 C2           3.4529   2.2456   0.3983 C.2            1 <1>                0.0000
      3 N3           2.3116   1.5914   0.4052 N.2            1 <1>                0.0000
      4 C4           2.2788   0.2535   0.3952 C.2            1 <1>                0.0000
      5 N5           1.0665  -0.4118   0.4023 N.pl3          1 <1>                0.0000
      6 C6          -0.1859   0.3480   0.4210 C.3            1 <1>                0.0000
      7 C7          -0.6651   0.6344  -1.0171 C.3            1 <1>                0.0000
      8 C8          -2.1988   0.5097  -1.0025 C.3            1 <1>                0.0000
      9 O9          -2.6143  -0.5258  -1.8953 O.3            1 <1>                0.0000
     10 C10         -2.5980   0.1519   0.4440 C.3            1 <1>                0.0000
     11 C11         -3.7608  -0.8424   0.4482 C.3            1 <1>                0.0000
     12 O12         -4.9296  -0.2107  -0.0780 O.3            1 <1>                0.0000
     13 P13         -6.3448  -0.9648  -0.2212 P.3            1 <1>                0.0000
     14 O14         -6.8896  -1.3278   1.2022 O.co2          1 <1>                0.0000
     15 O15         -7.3664  -0.0248  -0.9472 O.co2          1 <1>                0.0000
     16 O16         -6.1557  -2.2758  -1.0579 O.co2          1 <1>                0.0000
     17 C17         -1.3252  -0.4999   1.0392 C.3            1 <1>                0.0000
     18 C18          3.4697  -0.4644   0.3771 C.2            1 <1>                0.0000
     19 N19          3.4597  -1.8732   0.3658 N.am           1 <1>                0.0000
     20 C20          4.0365  -2.5431  -0.6516 C.2            1 <1>                0.0000
     21 O21          4.6380  -1.9368  -1.5134 O.2            1 <1>                0.0000
     22 C22          4.6809   0.2429   0.3698 C.2            1 <1>                0.0000
     23 O23          5.7477  -0.3516   0.3535 O.2            1 <1>                0.0000
     24 N24          4.6463   1.5919   0.3751 N.am           1 <1>                0.0000
     25 H25          5.4745   2.0969   0.3702 H              1 <1>                0.0000
     26 H26          4.2751   4.1098   0.4002 H              1 <1>                0.0000
     27 H27          2.5952   4.0935   0.4216 H              1 <1>                0.0000
     28 H28          1.0454  -1.3816   0.3950 H              1 <1>                0.0000
     29 H29         -0.0587   1.2779   0.9751 H              1 <1>                0.0000
     30 H30         -0.3753   1.6425  -1.3135 H              1 <1>                0.0000
     31 H31         -0.2378  -0.0950  -1.7053 H              1 <1>                0.0000
     32 H32         -2.6532   1.4571  -1.2925 H              1 <1>                0.0000
     33 H33         -2.3731  -0.3693  -2.8186 H              1 <1>                0.0000
     34 H34         -2.8641   1.0511   0.9998 H              1 <1>                0.0000
     35 H35         -3.5045  -1.7038  -0.1685 H              1 <1>                0.0000
     36 H36         -3.9541  -1.1712   1.4693 H              1 <1>                0.0000
     37 H37         -1.2435  -1.5416   0.7289 H              1 <1>                0.0000
     38 H38         -1.3215  -0.4181   2.1261 H              1 <1>                0.0000
     39 H39          3.0377  -2.3611   1.0902 H              1 <1>                0.0000
     40 H40          3.9633  -3.6195  -0.6998 H              1 <1>                0.0000
@<TRIPOS>BOND
    1    1    2 1     
    2    1   26 1     
    3    1   27 1     
    4    2   24 1     
    5    2    3 2     
    6    3    4 1     
    7    4    5 1     
    8    4   18 2     
    9    5    6 1     
   10    5   28 1     
   11    6   17 1     
   12    6    7 1     
   13    6   29 1     
   14    7    8 1     
   15    7   30 1     
   16    7   31 1     
   17    8    9 1     
   18    8   10 1     
   19    8   32 1     
   20    9   33 1     
   21   10   11 1     
   22   10   17 1     
   23   10   34 1     
   24   11   12 1     
   25   11   35 1     
   26   11   36 1     
   27   12   13 1     
   28   13   14 ar    
   29   13   15 ar    
   30   13   16 ar    
   31   17   37 1     
   32   17   38 1     
   33   18   19 1     
   34   18   22 1     
   35   19   20 am    
   36   19   39 1     
   37   20   21 2     
   38   20   40 1     
   39   22   23 2     
   40   22   24 am    
   41   24   25 1     
@<TRIPOS>SUBSTRUCTURE
      1 ****           1
@<TRIPOS>SET
DONOR_HYDROGENS      STATIC     ATOMS    <user>   **** ""
6 26 27 28 33 39 25
ATOM$RED        STATIC     ATOMS    COLORGROUP SYSTEM
6 26 27 28 33 39 25
