#       Name:                LX2
#       Creating user name   gbret
#       Creation time:       Fri Sep  9 11:46:22 2016


#       File generated by GOLD software.
#

@<TRIPOS>MOLECULE
LX2
    76    80     1
SMALL
NO_CHARGES


@<TRIPOS>ATOM
      1 O1           9.0713   1.3771   0.7442 O.co2          1 <1>                0.0000
      2 C2           9.4330   2.5041   0.4519 C.2            1 <1>                0.0000
      3 O3          10.5763   2.8574   0.6857 O.co2          1 <1>                0.0000
      4 C4           8.4687   3.4585  -0.2041 C.3            1 <1>                0.0000
      5 N5           7.1729   2.7985  -0.3814 N.pl3          1 <1>                0.0000
      6 C6           6.7665   2.1559  -1.5202 C.2            1 <1>                0.0000
      7 C7           5.5300   1.6627  -1.3497 C.2            1 <1>                0.0000
      8 C8           5.1109   2.0183   0.0081 C.ar           1 <1>                0.0000
      9 C9           3.9498   1.7923   0.7581 C.ar           1 <1>                0.0000
     10 O10          2.9106   1.1028   0.2188 O.3            1 <1>                0.0000
     11 C11          1.7602   0.9123   1.0448 C.3            1 <1>                0.0000
     12 C12          0.7031   0.1207   0.2722 C.3            1 <1>                0.0000
     13 C13         -0.5287  -0.0833   1.1565 C.3            1 <1>                0.0000
     14 N14         -1.5315  -0.8694   0.4256 N.4            1 <1>                0.0000
     15 H15         -1.0661  -1.5342  -0.1740 H              1 <1>                0.0000
     16 C16         -2.3844  -1.5865   1.3828 C.3            1 <1>                0.0000
     17 C17         -3.2946  -2.5570   0.6274 C.3            1 <1>                0.0000
     18 C18         -3.9871  -3.4649   1.6109 C.ar           1 <1>                0.0000
     19 C19         -4.7004  -2.9260   2.6653 C.ar           1 <1>                0.0000
     20 C20         -5.3356  -3.7588   3.5674 C.ar           1 <1>                0.0000
     21 C21         -5.2580  -5.1305   3.4148 C.ar           1 <1>                0.0000
     22 C22         -4.5455  -5.6694   2.3599 C.ar           1 <1>                0.0000
     23 C23         -3.9139  -4.8365   1.4553 C.ar           1 <1>                0.0000
     24 C24         -4.3250  -1.7782  -0.1490 C.ar           1 <1>                0.0000
     25 C25         -4.5416  -2.0592  -1.4850 C.ar           1 <1>                0.0000
     26 C26         -5.4868  -1.3448  -2.1972 C.ar           1 <1>                0.0000
     27 C27         -6.2157  -0.3498  -1.5732 C.ar           1 <1>                0.0000
     28 C28         -5.9998  -0.0694  -0.2369 C.ar           1 <1>                0.0000
     29 C29         -5.0576  -0.7867   0.4764 C.ar           1 <1>                0.0000
     30 C30         -2.3592   0.0296  -0.3898 C.3            1 <1>                0.0000
     31 C31         -1.4877   0.7475  -1.3879 C.ar           1 <1>                0.0000
     32 C32         -1.2245   2.0956  -1.2323 C.ar           1 <1>                0.0000
     33 C33         -0.4252   2.7541  -2.1477 C.ar           1 <1>                0.0000
     34 C34          0.1115   2.0650  -3.2195 C.ar           1 <1>                0.0000
     35 C35         -0.1509   0.7173  -3.3761 C.ar           1 <1>                0.0000
     36 C36         -0.9464   0.0562  -2.4569 C.ar           1 <1>                0.0000
     37 Cl37        -1.2765  -1.6368  -2.6530 Cl             1 <1>                0.0000
     38 C38          0.4338  -0.0335  -4.5447 C.3            1 <1>                0.0000
     39 F39          1.1995   0.8400  -5.3242 F              1 <1>                0.0000
     40 F40          1.2453  -1.0711  -4.0733 F              1 <1>                0.0000
     41 F41         -0.6007  -0.5666  -5.3212 F              1 <1>                0.0000
     42 C42          3.8684   2.2748   2.0498 C.ar           1 <1>                0.0000
     43 C43          4.9288   2.9794   2.6026 C.ar           1 <1>                0.0000
     44 C44          6.0761   3.2086   1.8761 C.ar           1 <1>                0.0000
     45 C45          6.1843   2.7267   0.5744 C.ar           1 <1>                0.0000
     46 H46          8.3446   4.3396   0.4255 H              1 <1>                0.0000
     47 H47          8.8595   3.7588  -1.1763 H              1 <1>                0.0000
     48 H48          7.3537   2.0602  -2.4216 H              1 <1>                0.0000
     49 H49          4.9534   1.1090  -2.0759 H              1 <1>                0.0000
     50 H50          2.0438   0.3609   1.9412 H              1 <1>                0.0000
     51 H51          1.3521   1.8823   1.3287 H              1 <1>                0.0000
     52 H52          0.4195   0.6720  -0.6243 H              1 <1>                0.0000
     53 H53          1.1112  -0.8494  -0.0118 H              1 <1>                0.0000
     54 H54         -0.2408  -0.6150   2.0635 H              1 <1>                0.0000
     55 H55         -0.9500   0.8863   1.4220 H              1 <1>                0.0000
     56 H56         -1.7589  -2.1434   2.0805 H              1 <1>                0.0000
     57 H57         -2.9943  -0.8704   1.9335 H              1 <1>                0.0000
     58 H58         -2.6969  -3.1550  -0.0605 H              1 <1>                0.0000
     59 H59         -4.7610  -1.8543   2.7845 H              1 <1>                0.0000
     60 H60         -5.8922  -3.3378   4.3916 H              1 <1>                0.0000
     61 H61         -5.7537  -5.7812   4.1200 H              1 <1>                0.0000
     62 H62         -4.4846  -6.7411   2.2409 H              1 <1>                0.0000
     63 H63         -3.3572  -5.2575   0.6311 H              1 <1>                0.0000
     64 H64         -3.9721  -2.8366  -1.9725 H              1 <1>                0.0000
     65 H65         -5.6555  -1.5639  -3.2412 H              1 <1>                0.0000
     66 H66         -6.9537   0.2088  -2.1298 H              1 <1>                0.0000
     67 H67         -6.5691   0.7083   0.2505 H              1 <1>                0.0000
     68 H68         -4.8889  -0.5676   1.5204 H              1 <1>                0.0000
     69 H69         -3.1144  -0.5517  -0.9187 H              1 <1>                0.0000
     70 H70         -2.8483   0.7588   0.2561 H              1 <1>                0.0000
     71 H71         -1.6437   2.6344  -0.3955 H              1 <1>                0.0000
     72 H72         -0.2201   3.8074  -2.0259 H              1 <1>                0.0000
     73 H73          0.7357   2.5802  -3.9346 H              1 <1>                0.0000
     74 H74          2.9753   2.1033   2.6323 H              1 <1>                0.0000
     75 H75          4.8531   3.3524   3.6133 H              1 <1>                0.0000
     76 H76          6.8940   3.7583   2.3180 H              1 <1>                0.0000
@<TRIPOS>BOND
    1    1    2 ar    
    2    2    3 ar    
    3    2    4 1     
    4    4    5 1     
    5    4   46 1     
    6    4   47 1     
    7    5   45 1     
    8    5    6 1     
    9    6    7 2     
   10    6   48 1     
   11    7    8 1     
   12    7   49 1     
   13    8   45 ar    
   14    8    9 ar    
   15    9   10 1     
   16    9   42 ar    
   17   10   11 1     
   18   11   12 1     
   19   11   50 1     
   20   11   51 1     
   21   12   13 1     
   22   12   52 1     
   23   12   53 1     
   24   13   14 1     
   25   13   54 1     
   26   13   55 1     
   27   14   15 1     
   28   14   16 1     
   29   14   30 1     
   30   16   17 1     
   31   16   56 1     
   32   16   57 1     
   33   17   18 1     
   34   17   24 1     
   35   17   58 1     
   36   18   23 ar    
   37   18   19 ar    
   38   19   20 ar    
   39   19   59 1     
   40   20   21 ar    
   41   20   60 1     
   42   21   22 ar    
   43   21   61 1     
   44   22   23 ar    
   45   22   62 1     
   46   23   63 1     
   47   24   29 ar    
   48   24   25 ar    
   49   25   26 ar    
   50   25   64 1     
   51   26   27 ar    
   52   26   65 1     
   53   27   28 ar    
   54   27   66 1     
   55   28   29 ar    
   56   28   67 1     
   57   29   68 1     
   58   30   31 1     
   59   30   69 1     
   60   30   70 1     
   61   31   36 ar    
   62   31   32 ar    
   63   32   33 ar    
   64   32   71 1     
   65   33   34 ar    
   66   33   72 1     
   67   34   35 ar    
   68   34   73 1     
   69   35   36 ar    
   70   35   38 1     
   71   36   37 1     
   72   38   39 1     
   73   38   40 1     
   74   38   41 1     
   75   42   43 ar    
   76   42   74 1     
   77   43   44 ar    
   78   43   75 1     
   79   44   45 ar    
   80   44   76 1     
@<TRIPOS>SUBSTRUCTURE
      1 ****           1
@<TRIPOS>SET
DONOR_HYDROGENS      STATIC     ATOMS    <user>   **** ""
1 15
ATOM$RED        STATIC     ATOMS    COLORGROUP SYSTEM
1 15
