#       Name:                LY7
#       Creating user name   gbret
#       Creation time:       Fri Sep  9 11:47:40 2016


#       File generated by GOLD software.
#

@<TRIPOS>MOLECULE
LY7
    46    47     1
SMALL
NO_CHARGES


@<TRIPOS>ATOM
      1 C1           1.2281   2.3221   4.7419 C.3            1 <1>                0.0000
      2 C2           1.2489   0.7922   4.7335 C.3            1 <1>                0.0000
      3 C3           1.9889   0.2854   5.9730 C.3            1 <1>                0.0000
      4 S4          -0.4529   0.1643   4.7464 S.o2           1 <1>                0.0000
      5 O5          -0.4670  -1.2423   4.5451 O.2            1 <1>                0.0000
      6 O6          -1.1967   0.7612   5.7999 O.2            1 <1>                0.0000
      7 N7          -1.1314   0.7810   3.3673 N.pl3          1 <1>                0.0000
      8 C8          -0.6294   0.3657   2.0551 C.3            1 <1>                0.0000
      9 C9          -1.6350   0.7671   0.9741 C.3            1 <1>                0.0000
     10 C10         -1.7298   2.2927   0.9069 C.3            1 <1>                0.0000
     11 C11         -1.1791   0.2330  -0.3593 C.ar           1 <1>                0.0000
     12 C12          0.0459   0.6185  -0.8736 C.ar           1 <1>                0.0000
     13 C13          0.4686   0.1326  -2.0941 C.ar           1 <1>                0.0000
     14 C14         -0.3413  -0.7487  -2.8087 C.ar           1 <1>                0.0000
     15 C15         -1.5745  -1.1341  -2.2852 C.ar           1 <1>                0.0000
     16 C16         -1.9846  -0.6454  -1.0615 C.ar           1 <1>                0.0000
     17 C17          0.1071  -1.2739  -4.1209 C.ar           1 <1>                0.0000
     18 C18          1.3442  -0.8903  -4.6392 C.ar           1 <1>                0.0000
     19 C19          1.7617  -1.3771  -5.8572 C.ar           1 <1>                0.0000
     20 C20          0.9458  -2.2564  -6.5744 C.ar           1 <1>                0.0000
     21 C21         -0.2931  -2.6403  -6.0538 C.ar           1 <1>                0.0000
     22 C22         -0.7060  -2.1557  -4.8332 C.ar           1 <1>                0.0000
     23 C23          1.3786  -2.7633  -7.8419 C.1            1 <1>                0.0000
     24 N24          1.7220  -3.1653  -8.8473 N.1            1 <1>                0.0000
     25 H25          2.2507   2.6994   4.7342 H              1 <1>                0.0000
     26 H26          0.7009   2.6831   3.8589 H              1 <1>                0.0000
     27 H27          0.7179   2.6736   5.6387 H              1 <1>                0.0000
     28 H28          1.7591   0.4407   3.8367 H              1 <1>                0.0000
     29 H29          1.4787   0.6369   6.8698 H              1 <1>                0.0000
     30 H30          2.0036  -0.8045   5.9671 H              1 <1>                0.0000
     31 H31          3.0115   0.6627   5.9653 H              1 <1>                0.0000
     32 H32         -1.8610   1.4172   3.4284 H              1 <1>                0.0000
     33 H33          0.3264   0.8525   1.8610 H              1 <1>                0.0000
     34 H34         -0.4954  -0.7159   2.0431 H              1 <1>                0.0000
     35 H35         -2.6136   0.3526   1.2162 H              1 <1>                0.0000
     36 H36         -0.7512   2.7073   0.6648 H              1 <1>                0.0000
     37 H37         -2.4461   2.5787   0.1368 H              1 <1>                0.0000
     38 H38         -2.0595   2.6791   1.8713 H              1 <1>                0.0000
     39 H39          0.6724   1.3014  -0.3190 H              1 <1>                0.0000
     40 H40          1.4248   0.4348  -2.4950 H              1 <1>                0.0000
     41 H41         -2.2062  -1.8163  -2.8347 H              1 <1>                0.0000
     42 H42         -2.9397  -0.9435  -0.6548 H              1 <1>                0.0000
     43 H43          1.9744  -0.2108  -4.0847 H              1 <1>                0.0000
     44 H44          2.7191  -1.0794  -6.2586 H              1 <1>                0.0000
     45 H45         -0.9247  -3.3194  -6.6071 H              1 <1>                0.0000
     46 H46         -1.6631  -2.4525  -4.4305 H              1 <1>                0.0000
@<TRIPOS>BOND
    1    1    2 1     
    2    1   25 1     
    3    1   26 1     
    4    1   27 1     
    5    2    3 1     
    6    2    4 1     
    7    2   28 1     
    8    3   29 1     
    9    3   30 1     
   10    3   31 1     
   11    4    5 2     
   12    4    6 2     
   13    4    7 1     
   14    7    8 1     
   15    7   32 1     
   16    8    9 1     
   17    8   33 1     
   18    8   34 1     
   19    9   10 1     
   20    9   11 1     
   21    9   35 1     
   22   10   36 1     
   23   10   37 1     
   24   10   38 1     
   25   11   16 ar    
   26   11   12 ar    
   27   12   13 ar    
   28   12   39 1     
   29   13   14 ar    
   30   13   40 1     
   31   14   15 ar    
   32   14   17 1     
   33   15   16 ar    
   34   15   41 1     
   35   16   42 1     
   36   17   22 ar    
   37   17   18 ar    
   38   18   19 ar    
   39   18   43 1     
   40   19   20 ar    
   41   19   44 1     
   42   20   21 ar    
   43   20   23 1     
   44   21   22 ar    
   45   21   45 1     
   46   22   46 1     
   47   23   24 3     
@<TRIPOS>SUBSTRUCTURE
      1 ****           1
@<TRIPOS>SET
DONOR_HYDROGENS      STATIC     ATOMS    <user>   **** ""
1 32
ATOM$RED        STATIC     ATOMS    COLORGROUP SYSTEM
1 32
