#       Name:                LZ2
#       Creating user name   gbret
#       Creation time:       Fri Sep  9 11:49:31 2016


#       File generated by GOLD software.
#

@<TRIPOS>MOLECULE
LZ2
    24    25     1
SMALL
NO_CHARGES


@<TRIPOS>ATOM
      1 N1           2.0845   1.8619   1.7647 N.pl3          1 <1>                0.0000
      2 S2           2.1070   0.2060   1.7556 S.o2           1 <1>                0.0000
      3 O3           3.4653  -0.1759   1.5872 O.2            1 <1>                0.0000
      4 O4           1.3129  -0.2121   2.8574 O.2            1 <1>                0.0000
      5 C5           1.2587  -0.3191   0.3033 C.ar           1 <1>                0.0000
      6 C6           1.9279  -0.9873  -0.6761 C.ar           1 <1>                0.0000
      7 C7           1.2737  -1.4106  -1.8310 C.ar           1 <1>                0.0000
      8 C8          -0.0539  -1.1680  -2.0132 C.ar           1 <1>                0.0000
      9 C9          -0.7767  -0.4818  -1.0249 C.ar           1 <1>                0.0000
     10 C10         -2.1524  -0.2128  -1.1778 C.ar           1 <1>                0.0000
     11 O11         -2.8081  -0.6178  -2.2960 O.3            1 <1>                0.0000
     12 C12         -2.8213   0.4577  -0.1930 C.ar           1 <1>                0.0000
     13 C13         -2.1636   0.8791   0.9596 C.ar           1 <1>                0.0000
     14 C14         -0.8361   0.6365   1.1395 C.ar           1 <1>                0.0000
     15 C15         -0.1131  -0.0556   0.1524 C.ar           1 <1>                0.0000
     16 H16          2.9179   2.3582   1.7594 H              1 <1>                0.0000
     17 H17          1.2380   2.3354   1.7713 H              1 <1>                0.0000
     18 H18          2.9815  -1.1920  -0.5562 H              1 <1>                0.0000
     19 H19          1.8276  -1.9385  -2.5931 H              1 <1>                0.0000
     20 H20         -0.5479  -1.5017  -2.9137 H              1 <1>                0.0000
     21 H21         -3.1916  -1.5028  -2.2283 H              1 <1>                0.0000
     22 H22         -3.8749   0.6639  -0.3104 H              1 <1>                0.0000
     23 H23         -2.7153   1.4073   1.7231 H              1 <1>                0.0000
     24 H24         -0.3412   0.9709   2.0392 H              1 <1>                0.0000
@<TRIPOS>BOND
    1    1    2 1     
    2    1   16 1     
    3    1   17 1     
    4    2    3 2     
    5    2    4 2     
    6    2    5 1     
    7    5   15 ar    
    8    5    6 ar    
    9    6    7 ar    
   10    6   18 1     
   11    7    8 ar    
   12    7   19 1     
   13    8    9 ar    
   14    8   20 1     
   15    9   15 ar    
   16    9   10 ar    
   17   10   11 1     
   18   10   12 ar    
   19   11   21 1     
   20   12   13 ar    
   21   12   22 1     
   22   13   14 ar    
   23   13   23 1     
   24   14   15 ar    
   25   14   24 1     
@<TRIPOS>SUBSTRUCTURE
      1 ****           1
@<TRIPOS>SET
DONOR_HYDROGENS      STATIC     ATOMS    <user>   **** ""
3 16 17 21
ATOM$RED        STATIC     ATOMS    COLORGROUP SYSTEM
3 16 17 21
