#       Name:                M0Z
#       Creating user name   gbret
#       Creation time:       Fri Sep  9 11:52:28 2016


#       File generated by GOLD software.
#

@<TRIPOS>MOLECULE
M0Z
    39    41     1
SMALL
NO_CHARGES


@<TRIPOS>ATOM
      1 C1          -0.1755   5.1893   1.2689 C.3            1 <1>                0.0000
      2 O2          -0.3019   3.7683   1.1854 O.3            1 <1>                0.0000
      3 C3           0.1540   3.1740   0.0515 C.ar           1 <1>                0.0000
      4 C4           0.7194   3.9574  -0.9591 C.ar           1 <1>                0.0000
      5 C5           1.1842   3.3911  -2.1048 C.ar           1 <1>                0.0000
      6 C6           1.0976   1.9985  -2.2796 C.ar           1 <1>                0.0000
      7 C7           1.5693   1.3824  -3.4515 C.ar           1 <1>                0.0000
      8 C8           1.4739   0.0321  -3.5954 C.ar           1 <1>                0.0000
      9 C9           0.9134  -0.7594  -2.5966 C.ar           1 <1>                0.0000
     10 C10          0.4391  -0.1943  -1.4333 C.ar           1 <1>                0.0000
     11 N11         -0.1219  -0.9982  -0.4364 N.pl3          1 <1>                0.0000
     12 C12          0.4383  -2.1384   0.0521 C.2            1 <1>                0.0000
     13 C13         -0.4070  -2.6234   0.9994 C.2            1 <1>                0.0000
     14 N14         -0.2418  -3.7831   1.7729 N.am           1 <1>                0.0000
     15 C15          0.8542  -4.5506   1.6111 C.2            1 <1>                0.0000
     16 N16          1.0128  -5.6640   2.3538 N.am           1 <1>                0.0000
     17 O17          1.6999  -4.2385   0.7951 O.2            1 <1>                0.0000
     18 C18         -1.4919  -1.7092   1.0415 C.2            1 <1>                0.0000
     19 N19         -1.2381  -0.7647   0.1550 N.2            1 <1>                0.0000
     20 C20         -2.6767  -1.7954   1.9149 C.2            1 <1>                0.0000
     21 N21         -3.6346  -0.8497   1.8464 N.am           1 <1>                0.0000
     22 O22         -2.7897  -2.7197   2.6969 O.2            1 <1>                0.0000
     23 C23          0.5254   1.2035  -1.2561 C.ar           1 <1>                0.0000
     24 C24          0.0593   1.8177  -0.0841 C.ar           1 <1>                0.0000
     25 H25          0.8764   5.4654   1.1961 H              1 <1>                0.0000
     26 H26         -0.7300   5.6520   0.4524 H              1 <1>                0.0000
     27 H27         -0.5766   5.5343   2.2219 H              1 <1>                0.0000
     28 H28          0.7875   5.0273  -0.8283 H              1 <1>                0.0000
     29 H29          1.6179   4.0085  -2.8776 H              1 <1>                0.0000
     30 H30          2.0069   1.9800  -4.2375 H              1 <1>                0.0000
     31 H31          1.8386  -0.4328  -4.4995 H              1 <1>                0.0000
     32 H32          0.8495  -1.8285  -2.7356 H              1 <1>                0.0000
     33 H33          1.3770  -2.5753  -0.2552 H              1 <1>                0.0000
     34 H34         -0.9164  -4.0320   2.4239 H              1 <1>                0.0000
     35 H35          1.8016  -6.2164   2.2374 H              1 <1>                0.0000
     36 H36          0.3381  -5.9129   3.0048 H              1 <1>                0.0000
     37 H37         -4.4140  -0.9063   2.4210 H              1 <1>                0.0000
     38 H38         -3.5445  -0.1124   1.2226 H              1 <1>                0.0000
     39 H39         -0.3755   1.2222   0.7051 H              1 <1>                0.0000
@<TRIPOS>BOND
    1    1    2 1     
    2    1   25 1     
    3    1   26 1     
    4    1   27 1     
    5    2    3 1     
    6    3   24 ar    
    7    3    4 ar    
    8    4    5 ar    
    9    4   28 1     
   10    5    6 ar    
   11    5   29 1     
   12    6   23 ar    
   13    6    7 ar    
   14    7    8 ar    
   15    7   30 1     
   16    8    9 ar    
   17    8   31 1     
   18    9   10 ar    
   19    9   32 1     
   20   10   11 1     
   21   10   23 ar    
   22   11   19 1     
   23   11   12 1     
   24   12   13 2     
   25   12   33 1     
   26   13   14 1     
   27   13   18 1     
   28   14   15 am    
   29   14   34 1     
   30   15   16 am    
   31   15   17 2     
   32   16   35 1     
   33   16   36 1     
   34   18   19 2     
   35   18   20 1     
   36   20   21 am    
   37   20   22 2     
   38   21   37 1     
   39   21   38 1     
   40   23   24 ar    
   41   24   39 1     
@<TRIPOS>SUBSTRUCTURE
      1 ****           1
@<TRIPOS>SET
DONOR_HYDROGENS      STATIC     ATOMS    <user>   **** ""
5 34 35 36 37 38
ATOM$RED        STATIC     ATOMS    COLORGROUP SYSTEM
5 34 35 36 37 38
