#       Name:                M29
#       Creating user name   gbret
#       Creation time:       Fri Sep  9 11:54:07 2016


#       File generated by GOLD software.
#

@<TRIPOS>MOLECULE
M29
    32    32     1
SMALL
NO_CHARGES


@<TRIPOS>ATOM
      1 C1          -2.0594   4.6583   3.5588 C.3            1 <1>                0.0000
      2 C2          -2.0386   3.1284   3.5504 C.3            1 <1>                0.0000
      3 O3          -1.3590   2.6602   2.3558 O.3            1 <1>                0.0000
      4 C4          -1.2545   1.3316   2.1953 C.2            1 <1>                0.0000
      5 O5          -1.7156   0.5847   3.0256 O.2            1 <1>                0.0000
      6 C6          -0.5620   0.7716   0.9796 C.3            1 <1>                0.0000
      7 C7          -0.5806  -0.7570   1.0410 C.3            1 <1>                0.0000
      8 C8           0.1118  -1.3170  -0.1747 C.ar           1 <1>                0.0000
      9 C9          -0.6119  -1.5795  -1.3229 C.ar           1 <1>                0.0000
     10 C10          0.0233  -2.0931  -2.4380 C.ar           1 <1>                0.0000
     11 C11          1.3823  -2.3439  -2.4052 C.ar           1 <1>                0.0000
     12 C12          2.1062  -2.0807  -1.2573 C.ar           1 <1>                0.0000
     13 C13          1.4718  -1.5630  -0.1436 C.ar           1 <1>                0.0000
     14 S14          2.1918  -2.9998  -3.8262 S.o2           1 <1>                0.0000
     15 N15          2.7004  -1.7141  -4.7377 N.pl3          1 <1>                0.0000
     16 O16          3.3658  -3.6477  -3.3560 O.2            1 <1>                0.0000
     17 O17          1.1913  -3.6612  -4.5884 O.2            1 <1>                0.0000
     18 H18         -1.0368   5.0356   3.5511 H              1 <1>                0.0000
     19 H19         -2.5866   5.0193   2.6758 H              1 <1>                0.0000
     20 H20         -2.5696   5.0098   4.4556 H              1 <1>                0.0000
     21 H21         -1.5114   2.7674   4.4335 H              1 <1>                0.0000
     22 H22         -3.0612   2.7511   3.5582 H              1 <1>                0.0000
     23 H23         -1.0798   1.1055   0.0805 H              1 <1>                0.0000
     24 H24          0.4700   1.1217   0.9558 H              1 <1>                0.0000
     25 H25         -0.0628  -1.0909   1.9401 H              1 <1>                0.0000
     26 H26         -1.6126  -1.1071   1.0648 H              1 <1>                0.0000
     27 H27         -1.6736  -1.3835  -1.3486 H              1 <1>                0.0000
     28 H28         -0.5422  -2.2988  -3.3348 H              1 <1>                0.0000
     29 H29          3.1679  -2.2769  -1.2315 H              1 <1>                0.0000
     30 H30          2.0373  -1.3573   0.7532 H              1 <1>                0.0000
     31 H31          2.5253  -0.8081  -4.4386 H              1 <1>                0.0000
     32 H32          3.1734  -1.8670  -5.5706 H              1 <1>                0.0000
@<TRIPOS>BOND
    1    1    2 1     
    2    1   18 1     
    3    1   19 1     
    4    1   20 1     
    5    2    3 1     
    6    2   21 1     
    7    2   22 1     
    8    3    4 1     
    9    4    5 2     
   10    4    6 1     
   11    6    7 1     
   12    6   23 1     
   13    6   24 1     
   14    7    8 1     
   15    7   25 1     
   16    7   26 1     
   17    8   13 ar    
   18    8    9 ar    
   19    9   10 ar    
   20    9   27 1     
   21   10   11 ar    
   22   10   28 1     
   23   11   12 ar    
   24   11   14 1     
   25   12   13 ar    
   26   12   29 1     
   27   13   30 1     
   28   14   15 1     
   29   14   16 2     
   30   14   17 2     
   31   15   31 1     
   32   15   32 1     
@<TRIPOS>SUBSTRUCTURE
      1 ****           1
@<TRIPOS>SET
DONOR_HYDROGENS      STATIC     ATOMS    <user>   **** ""
2 31 32
ATOM$RED        STATIC     ATOMS    COLORGROUP SYSTEM
2 31 32
