#       Name:                M2S
#       Creating user name   gbret
#       Creation time:       Fri Sep  9 11:54:43 2016


#       File generated by GOLD software.
#

@<TRIPOS>MOLECULE
M2S
    27    26     1
SMALL
NO_CHARGES


@<TRIPOS>ATOM
      1 C1           1.8775   3.2651   0.1304 C.3            1 <1>                0.0000
      2 S2           1.9021   1.4513   0.1204 S.o            1 <1>                0.0000
      3 O3           2.5153   0.9794   1.3122 O.2            1 <1>                0.0000
      4 C4           0.1403   1.0193   0.1349 C.3            1 <1>                0.0000
      5 C5          -0.0115  -0.5032   0.1282 C.3            1 <1>                0.0000
      6 C6           0.6437  -1.0755  -1.1305 C.3            1 <1>                0.0000
      7 C7           0.6675  -1.0889   1.3679 C.3            1 <1>                0.0000
      8 C8          -1.4974  -0.8676   0.1404 C.3            1 <1>                0.0000
      9 N9          -2.1493  -0.3053  -1.0498 N.4            1 <1>                0.0000
     10 H10         -3.1292  -0.5456  -1.0418 H              1 <1>                0.0000
     11 H11         -2.0492   0.6988  -1.0454 H              1 <1>                0.0000
     12 H12         -1.7172  -0.6827  -1.8799 H              1 <1>                0.0000
     13 C13         -1.6469  -2.3672   0.1338 C.2            1 <1>                0.0000
     14 O14         -1.3386  -3.0149   1.1196 O.co2          1 <1>                0.0000
     15 O15         -2.0762  -2.9326  -0.8574 O.co2          1 <1>                0.0000
     16 H16          2.9001   3.6424   0.1227 H              1 <1>                0.0000
     17 H17          1.3503   3.6262  -0.7527 H              1 <1>                0.0000
     18 H18          1.3673   3.6167   1.0272 H              1 <1>                0.0000
     19 H19         -0.3264   1.4270   1.0316 H              1 <1>                0.0000
     20 H20         -0.3434   1.4365  -0.7483 H              1 <1>                0.0000
     21 H21          1.7023  -0.8158  -1.1392 H              1 <1>                0.0000
     22 H22          0.5355  -2.1601  -1.1352 H              1 <1>                0.0000
     23 H23          0.1600  -0.6582  -2.0136 H              1 <1>                0.0000
     24 H24          0.2008  -0.6812   2.2646 H              1 <1>                0.0000
     25 H25          0.5594  -2.1735   1.3631 H              1 <1>                0.0000
     26 H26          1.7261  -0.8293   1.3592 H              1 <1>                0.0000
     27 H27         -1.9641  -0.4599   1.0371 H              1 <1>                0.0000
@<TRIPOS>BOND
    1    1    2 1     
    2    1   16 1     
    3    1   17 1     
    4    1   18 1     
    5    2    3 2     
    6    2    4 1     
    7    4    5 1     
    8    4   19 1     
    9    4   20 1     
   10    5    6 1     
   11    5    7 1     
   12    5    8 1     
   13    6   21 1     
   14    6   22 1     
   15    6   23 1     
   16    7   24 1     
   17    7   25 1     
   18    7   26 1     
   19    8    9 1     
   20    8   13 1     
   21    8   27 1     
   22    9   10 1     
   23    9   11 1     
   24    9   12 1     
   25   13   14 ar    
   26   13   15 ar    
@<TRIPOS>SUBSTRUCTURE
      1 ****           1
@<TRIPOS>SET
DONOR_HYDROGENS      STATIC     ATOMS    <user>   **** ""
3 10 11 12
ATOM$RED        STATIC     ATOMS    COLORGROUP SYSTEM
3 10 11 12
