#       Name:                M3I
#       Creating user name   gbret
#       Creation time:       Fri Sep  9 11:55:34 2016


#       File generated by GOLD software.
#

@<TRIPOS>MOLECULE
M3I
    13    13     1
SMALL
NO_CHARGES


@<TRIPOS>ATOM
      1 C1           0.4393   2.2743   0.0109 C.3            1 <1>                0.0000
      2 C2           0.4598   0.7674   0.0026 C.2            1 <1>                0.0000
      3 C3          -0.6135  -0.0550   0.0030 C.2            1 <1>                0.0000
      4 C4          -0.0467  -1.3580  -0.0066 C.2            1 <1>                0.0000
      5 N5          -0.7336  -2.5675  -0.0105 N.pl3          1 <1>                0.0000
      6 N6           1.2504  -1.1915  -0.0116 N.2            1 <1>                0.0000
      7 O7           1.5459  -0.0190  -0.0124 O.3            1 <1>                0.0000
      8 H8           1.4619   2.6516   0.0032 H              1 <1>                0.0000
      9 H9          -0.0878   2.6354  -0.8722 H              1 <1>                0.0000
     10 H10         -0.0709   2.6258   0.9077 H              1 <1>                0.0000
     11 H11         -1.6590   0.2157   0.0095 H              1 <1>                0.0000
     12 H12         -1.7036  -2.5745  -0.0065 H              1 <1>                0.0000
     13 H13         -0.2426  -3.4041  -0.0172 H              1 <1>                0.0000
@<TRIPOS>BOND
    1    1    2 1     
    2    1    8 1     
    3    1    9 1     
    4    1   10 1     
    5    2    7 1     
    6    2    3 2     
    7    3    4 1     
    8    3   11 1     
    9    4    5 1     
   10    4    6 2     
   11    5   12 1     
   12    5   13 1     
   13    6    7 1     
@<TRIPOS>SUBSTRUCTURE
      1 ****           1
@<TRIPOS>SET
DONOR_HYDROGENS      STATIC     ATOMS    <user>   **** ""
2 12 13
ATOM$RED        STATIC     ATOMS    COLORGROUP SYSTEM
2 12 13
