#       Name:                M9M
#       Creating user name   gbret
#       Creation time:       Fri Sep  9 12:02:30 2016


#       File generated by GOLD software.
#

@<TRIPOS>MOLECULE
M9M
    61    64     1
SMALL
NO_CHARGES


@<TRIPOS>ATOM
      1 C1          -1.3745   8.6028   0.9219 C.3            1 <1>                0.0000
      2 N2          -1.3546   7.1339   0.9138 N.4            1 <1>                0.0000
      3 H3          -2.3016   6.7857   0.9210 H              1 <1>                0.0000
      4 C4          -0.6476   6.6491   2.1053 C.3            1 <1>                0.0000
      5 C5          -0.6941   5.1201   2.1438 C.3            1 <1>                0.0000
      6 C6          -0.0208   4.5625   0.8864 C.3            1 <1>                0.0000
      7 C7          -0.1338   3.0367   0.8794 C.3            1 <1>                0.0000
      8 C8           0.6457   2.4731  -0.3104 C.3            1 <1>                0.0000
      9 C9           0.5327   0.9473  -0.3174 C.3            1 <1>                0.0000
     10 C10          1.3122   0.3836  -1.5072 C.3            1 <1>                0.0000
     11 C11          1.2009  -1.1192  -1.5142 C.ar           1 <1>                0.0000
     12 C12          2.1309  -1.8818  -0.8319 C.ar           1 <1>                0.0000
     13 C13          2.0349  -3.2613  -0.8332 C.ar           1 <1>                0.0000
     14 C14          1.0032  -3.8792  -1.5205 C.ar           1 <1>                0.0000
     15 N15          0.8860  -5.2764  -1.5322 N.am           1 <1>                0.0000
     16 C16          1.6260  -6.0929  -0.5669 C.3            1 <1>                0.0000
     17 C17          0.7893  -6.2890   0.6711 C.2            1 <1>                0.0000
     18 C18         -0.0495  -7.3896   0.9608 C.2            1 <1>                0.0000
     19 C19         -0.5717  -7.0925   2.1748 C.2            1 <1>                0.0000
     20 C20         -1.5413  -7.9291   2.9691 C.3            1 <1>                0.0000
     21 O21         -0.0554  -5.9077   2.5304 O.3            1 <1>                0.0000
     22 N22          0.7001  -5.4812   1.6880 N.2            1 <1>                0.0000
     23 C23          0.0798  -5.8579  -2.4469 C.2            1 <1>                0.0000
     24 O24         -0.0617  -7.0625  -2.4557 O.2            1 <1>                0.0000
     25 C25         -0.6437  -5.0034  -3.4565 C.3            1 <1>                0.0000
     26 O26         -0.9412  -3.7283  -2.8818 O.3            1 <1>                0.0000
     27 C27          0.0663  -3.1105  -2.2092 C.ar           1 <1>                0.0000
     28 C28          0.1655  -1.7302  -2.1983 C.ar           1 <1>                0.0000
     29 C29         -0.7196   5.1335  -0.3508 C.3            1 <1>                0.0000
     30 C30         -0.6705   6.6620  -0.2960 C.3            1 <1>                0.0000
     31 H31         -0.3520   8.9801   0.9142 H              1 <1>                0.0000
     32 H32         -1.9017   8.9639   0.0388 H              1 <1>                0.0000
     33 H33         -1.8847   8.9543   1.8187 H              1 <1>                0.0000
     34 H34          0.3905   6.9798   2.0708 H              1 <1>                0.0000
     35 H35         -1.1260   7.0494   2.9991 H              1 <1>                0.0000
     36 H36         -0.1671   4.7621   3.0281 H              1 <1>                0.0000
     37 H37         -1.7318   4.7883   2.1784 H              1 <1>                0.0000
     38 H38          1.0306   4.8502   0.8780 H              1 <1>                0.0000
     39 H39          0.2788   2.6376   1.8060 H              1 <1>                0.0000
     40 H40         -1.1821   2.7504   0.7954 H              1 <1>                0.0000
     41 H41          0.2331   2.8722  -1.2370 H              1 <1>                0.0000
     42 H42          1.6941   2.7594  -0.2264 H              1 <1>                0.0000
     43 H43          0.9453   0.5481   0.6092 H              1 <1>                0.0000
     44 H44         -0.5157   0.6610  -0.4014 H              1 <1>                0.0000
     45 H45          0.8996   0.7828  -2.4338 H              1 <1>                0.0000
     46 H46          2.3605   0.6699  -1.4233 H              1 <1>                0.0000
     47 H47          2.9349  -1.3986  -0.2967 H              1 <1>                0.0000
     48 H48          2.7625  -3.8553  -0.3000 H              1 <1>                0.0000
     49 H49          1.8526  -7.0628  -1.0097 H              1 <1>                0.0000
     50 H50          2.5552  -5.5888  -0.3013 H              1 <1>                0.0000
     51 H51         -0.2321  -8.2644   0.3543 H              1 <1>                0.0000
     52 H52         -0.9883  -8.6100   3.6163 H              1 <1>                0.0000
     53 H53         -2.1687  -7.2783   3.5780 H              1 <1>                0.0000
     54 H54         -2.1680  -8.5043   2.2876 H              1 <1>                0.0000
     55 H55         -0.0129  -4.8672  -4.3350 H              1 <1>                0.0000
     56 H56         -1.5715  -5.4948  -3.7493 H              1 <1>                0.0000
     57 H57         -0.5616  -1.1313  -2.7265 H              1 <1>                0.0000
     58 H58         -0.2107   4.7850  -1.2496 H              1 <1>                0.0000
     59 H59         -1.7578   4.8020  -0.3679 H              1 <1>                0.0000
     60 H60         -1.1668   7.0728  -1.1753 H              1 <1>                0.0000
     61 H61          0.3684   6.9914  -0.2793 H              1 <1>                0.0000
@<TRIPOS>BOND
    1    1    2 1     
    2    1   31 1     
    3    1   32 1     
    4    1   33 1     
    5    2    3 1     
    6    2   30 1     
    7    2    4 1     
    8    4    5 1     
    9    4   34 1     
   10    4   35 1     
   11    5    6 1     
   12    5   36 1     
   13    5   37 1     
   14    6    7 1     
   15    6   29 1     
   16    6   38 1     
   17    7    8 1     
   18    7   39 1     
   19    7   40 1     
   20    8    9 1     
   21    8   41 1     
   22    8   42 1     
   23    9   10 1     
   24    9   43 1     
   25    9   44 1     
   26   10   11 1     
   27   10   45 1     
   28   10   46 1     
   29   11   28 ar    
   30   11   12 ar    
   31   12   13 ar    
   32   12   47 1     
   33   13   14 ar    
   34   13   48 1     
   35   14   27 ar    
   36   14   15 1     
   37   15   16 1     
   38   15   23 am    
   39   16   17 1     
   40   16   49 1     
   41   16   50 1     
   42   17   22 2     
   43   17   18 1     
   44   18   19 2     
   45   18   51 1     
   46   19   20 1     
   47   19   21 1     
   48   20   52 1     
   49   20   53 1     
   50   20   54 1     
   51   21   22 1     
   52   23   24 2     
   53   23   25 1     
   54   25   26 1     
   55   25   55 1     
   56   25   56 1     
   57   26   27 1     
   58   27   28 ar    
   59   28   57 1     
   60   29   30 1     
   61   29   58 1     
   62   29   59 1     
   63   30   60 1     
   64   30   61 1     
@<TRIPOS>SUBSTRUCTURE
      1 ****           1
@<TRIPOS>SET
DONOR_HYDROGENS      STATIC     ATOMS    <user>   **** ""
1 3
ATOM$RED        STATIC     ATOMS    COLORGROUP SYSTEM
1 3
