#       Name:                MC4
#       Creating user name   gbret
#       Creation time:       Fri Sep  9 12:06:56 2016


#       File generated by GOLD software.
#

@<TRIPOS>MOLECULE
MC4
    93    95     1
SMALL
NO_CHARGES


@<TRIPOS>ATOM
      1 C1         -12.9541   8.1862   3.8482 C.3            1 <1>                0.0000
      2 C2         -11.9561   7.0571   3.8603 C.2            1 <1>                0.0000
      3 O3         -12.3361   5.9079   3.7360 O.2            1 <1>                0.0000
      4 C4         -10.6008   7.3287   4.0136 C.2            1 <1>                0.0000
      5 C5         -10.1301   8.7520   4.1676 C.3            1 <1>                0.0000
      6 C6          -9.6866   6.2945   4.0247 C.2            1 <1>                0.0000
      7 O7         -10.1079   5.0203   3.8869 O.3            1 <1>                0.0000
      8 S8          -7.9695   6.6385   4.2190 S.3            1 <1>                0.0000
      9 C9          -7.3030   4.9568   4.1568 C.3            1 <1>                0.0000
     10 C10         -5.7814   5.0053   4.3094 C.3            1 <1>                0.0000
     11 N11         -5.2420   3.6441   4.2591 N.am           1 <1>                0.0000
     12 C12         -3.9146   3.4406   4.3736 C.2            1 <1>                0.0000
     13 O13         -3.1667   4.3843   4.5184 O.2            1 <1>                0.0000
     14 C14         -3.3597   2.0405   4.3218 C.3            1 <1>                0.0000
     15 C15         -1.8381   2.0889   4.4745 C.3            1 <1>                0.0000
     16 N16         -1.2987   0.7278   4.4241 N.am           1 <1>                0.0000
     17 C17          0.0287   0.5243   4.5387 C.2            1 <1>                0.0000
     18 O18          0.7849   1.4709   4.5918 O.2            1 <1>                0.0000
     19 C19          0.5732  -0.8795   4.6008 C.3            1 <1>                0.0000
     20 O20         -0.5106  -1.8080   4.6736 O.3            1 <1>                0.0000
     21 C21          1.4024  -1.1609   3.3461 C.3            1 <1>                0.0000
     22 C22          0.5553  -0.8843   2.1024 C.3            1 <1>                0.0000
     23 C23          2.6350  -0.2546   3.3356 C.3            1 <1>                0.0000
     24 C24          1.8459  -2.6252   3.3458 C.3            1 <1>                0.0000
     25 O25          2.6204  -2.8880   2.1739 O.3            1 <1>                0.0000
     26 P26          3.2521  -4.3321   1.8460 P.3            1 <1>                0.0000
     27 O27          4.3121  -4.6850   2.9132 O.co2          1 <1>                0.0000
     28 O28          2.1339  -5.3982   1.8585 O.co2          1 <1>                0.0000
     29 O29          3.9444  -4.2976   0.3928 O.3            1 <1>                0.0000
     30 P30          4.3708  -5.4292  -0.6701 P.3            1 <1>                0.0000
     31 O31          5.6468  -6.1461  -0.1751 O.co2          1 <1>                0.0000
     32 O32          3.2262  -6.4569  -0.8152 O.co2          1 <1>                0.0000
     33 O33          4.6602  -4.7431  -2.0975 O.3            1 <1>                0.0000
     34 C34          4.9593  -5.4942  -3.2757 C.3            1 <1>                0.0000
     35 C35          5.1792  -4.5368  -4.4488 C.3            1 <1>                0.0000
     36 O36          6.4077  -3.7984  -4.2717 O.3            1 <1>                0.0000
     37 C37          6.7651  -3.3323  -5.5911 C.3            1 <1>                0.0000
     38 C38          6.4478  -4.5188  -6.5282 C.3            1 <1>                0.0000
     39 O39          7.6170  -5.3109  -6.7465 O.3            1 <1>                0.0000
     40 C40          5.3805  -5.3294  -5.7594 C.3            1 <1>                0.0000
     41 O41          5.8579  -6.6469  -5.4794 O.3            1 <1>                0.0000
     42 P42          5.1053  -7.9778  -5.9838 P.3            1 <1>                0.0000
     43 O43          5.1425  -8.0375  -7.5489 O.co2          1 <1>                0.0000
     44 O44          5.8248  -9.2392  -5.3958 O.co2          1 <1>                0.0000
     45 O45          3.6163  -7.9519  -5.4974 O.co2          1 <1>                0.0000
     46 N46          5.9585  -2.1649  -5.9554 N.pl3          1 <1>                0.0000
     47 C47          4.7818  -1.7863  -5.3807 C.2            1 <1>                0.0000
     48 N48          4.3378  -0.7031  -5.9492 N.2            1 <1>                0.0000
     49 C49          5.1988  -0.3189  -6.9219 C.ar           1 <1>                0.0000
     50 C50          5.2409   0.7430  -7.8417 C.ar           1 <1>                0.0000
     51 N51          4.2351   1.6930  -7.8729 N.pl3          1 <1>                0.0000
     52 N52          6.2692   0.8138  -8.6803 N.ar           1 <1>                0.0000
     53 C53          7.2338  -0.0880  -8.6574 C.ar           1 <1>                0.0000
     54 N54          7.2362  -1.0987  -7.8143 N.ar           1 <1>                0.0000
     55 C55          6.2519  -1.2487  -6.9337 C.ar           1 <1>                0.0000
     56 H56        -13.9583   7.7822   3.7192 H              1 <1>                0.0000
     57 H57        -12.8995   8.7296   4.7915 H              1 <1>                0.0000
     58 H58        -12.7265   8.8635   3.0250 H              1 <1>                0.0000
     59 H59        -10.1165   9.0178   5.2246 H              1 <1>                0.0000
     60 H60         -9.1257   8.8492   3.7556 H              1 <1>                0.0000
     61 H61        -10.8078   9.4185   3.6340 H              1 <1>                0.0000
     62 H62         -9.3959   4.3662   3.9070 H              1 <1>                0.0000
     63 H63         -7.7308   4.3662   4.9669 H              1 <1>                0.0000
     64 H64         -7.5579   4.5001   3.2004 H              1 <1>                0.0000
     65 H65         -5.3536   5.5958   3.4993 H              1 <1>                0.0000
     66 H66         -5.5266   5.4619   5.2658 H              1 <1>                0.0000
     67 H67         -5.8402   2.8893   4.1433 H              1 <1>                0.0000
     68 H68         -3.7876   1.4499   5.1319 H              1 <1>                0.0000
     69 H69         -3.6146   1.5838   3.3655 H              1 <1>                0.0000
     70 H70         -1.4103   2.6795   3.6644 H              1 <1>                0.0000
     71 H71         -1.5833   2.5456   5.4309 H              1 <1>                0.0000
     72 H72         -1.8969  -0.0270   4.3083 H              1 <1>                0.0000
     73 H73          1.2030  -0.9862   5.4840 H              1 <1>                0.0000
     74 H74         -1.1134  -1.7690   3.9185 H              1 <1>                0.0000
     75 H75          0.2393   0.1589   2.1027 H              1 <1>                0.0000
     76 H76          1.1461  -1.0847   1.2086 H              1 <1>                0.0000
     77 H77         -0.3228  -1.5299   2.1099 H              1 <1>                0.0000
     78 H78          3.1774  -0.3680   4.2743 H              1 <1>                0.0000
     79 H79          3.2838  -0.5333   2.5052 H              1 <1>                0.0000
     80 H80          2.3221   0.7830   3.2199 H              1 <1>                0.0000
     81 H81          2.4494  -2.8223   4.2318 H              1 <1>                0.0000
     82 H82          0.9678  -3.2709   3.3533 H              1 <1>                0.0000
     83 H83          5.8626  -6.0820  -3.1123 H              1 <1>                0.0000
     84 H84          4.1277  -6.1614  -3.5022 H              1 <1>                0.0000
     85 H85          4.3346  -3.8543  -4.5440 H              1 <1>                0.0000
     86 H86          7.8267  -3.0891  -5.6330 H              1 <1>                0.0000
     87 H87          6.0481  -4.1601  -7.4766 H              1 <1>                0.0000
     88 H88          8.3419  -4.8331  -7.1723 H              1 <1>                0.0000
     89 H89          4.4508  -5.3715  -6.3269 H              1 <1>                0.0000
     90 H90          4.2903  -2.3085  -4.5732 H              1 <1>                0.0000
     91 H91          3.4897   1.6307  -7.2552 H              1 <1>                0.0000
     92 H92          4.2753   2.4212  -8.5124 H              1 <1>                0.0000
     93 H93          8.0510   0.0071  -9.3570 H              1 <1>                0.0000
@<TRIPOS>BOND
    1    1    2 1     
    2    1   56 1     
    3    1   57 1     
    4    1   58 1     
    5    2    3 2     
    6    2    4 1     
    7    4    5 1     
    8    4    6 2     
    9    5   59 1     
   10    5   60 1     
   11    5   61 1     
   12    6    7 1     
   13    6    8 1     
   14    7   62 1     
   15    8    9 1     
   16    9   10 1     
   17    9   63 1     
   18    9   64 1     
   19   10   11 1     
   20   10   65 1     
   21   10   66 1     
   22   11   12 am    
   23   11   67 1     
   24   12   13 2     
   25   12   14 1     
   26   14   15 1     
   27   14   68 1     
   28   14   69 1     
   29   15   16 1     
   30   15   70 1     
   31   15   71 1     
   32   16   17 am    
   33   16   72 1     
   34   17   18 2     
   35   17   19 1     
   36   19   20 1     
   37   19   21 1     
   38   19   73 1     
   39   20   74 1     
   40   21   22 1     
   41   21   23 1     
   42   21   24 1     
   43   22   75 1     
   44   22   76 1     
   45   22   77 1     
   46   23   78 1     
   47   23   79 1     
   48   23   80 1     
   49   24   25 1     
   50   24   81 1     
   51   24   82 1     
   52   25   26 1     
   53   26   27 ar    
   54   26   28 ar    
   55   26   29 1     
   56   29   30 1     
   57   30   31 ar    
   58   30   32 ar    
   59   30   33 1     
   60   33   34 1     
   61   34   35 1     
   62   34   83 1     
   63   34   84 1     
   64   35   40 1     
   65   35   36 1     
   66   35   85 1     
   67   36   37 1     
   68   37   38 1     
   69   37   46 1     
   70   37   86 1     
   71   38   39 1     
   72   38   40 1     
   73   38   87 1     
   74   39   88 1     
   75   40   41 1     
   76   40   89 1     
   77   41   42 1     
   78   42   43 ar    
   79   42   44 ar    
   80   42   45 ar    
   81   46   55 1     
   82   46   47 1     
   83   47   48 2     
   84   47   90 1     
   85   48   49 1     
   86   49   55 ar    
   87   49   50 ar    
   88   50   51 1     
   89   50   52 ar    
   90   51   91 1     
   91   51   92 1     
   92   52   53 ar    
   93   53   54 ar    
   94   53   93 1     
   95   54   55 ar    
@<TRIPOS>SUBSTRUCTURE
      1 ****           1
@<TRIPOS>SET
DONOR_HYDROGENS      STATIC     ATOMS    <user>   **** ""
7 62 67 72 74 88 91 92
ATOM$RED        STATIC     ATOMS    COLORGROUP SYSTEM
7 62 67 72 74 88 91 92
