#       Name:                MC9
#       Creating user name   gbret
#       Creation time:       Fri Sep  9 12:07:06 2016


#       File generated by GOLD software.
#

@<TRIPOS>MOLECULE
MC9
    70    73     1
SMALL
NO_CHARGES


@<TRIPOS>ATOM
      1 C1          -1.2114   4.5192   2.1807 C.3            1 <1>                0.0000
      2 C2          -1.3975   3.0683   1.7320 C.3            1 <1>                0.0000
      3 C3          -2.8683   2.7689   1.5975 C.2            1 <1>                0.0000
      4 C4          -3.4395   1.9136   2.4089 C.2            1 <1>                0.0000
      5 C5          -4.9103   1.6141   2.2743 C.3            1 <1>                0.0000
      6 O6          -5.4312   2.2901   1.1281 O.3            1 <1>                0.0000
      7 C7          -5.1110   0.1060   2.1120 C.3            1 <1>                0.0000
      8 C8          -5.7825  -0.6453   3.2633 C.3            1 <1>                0.0000
      9 C9          -6.5456  -0.4034   1.9594 C.3            1 <1>                0.0000
     10 C10         -0.7090   2.8597   0.3817 C.3            1 <1>                0.0000
     11 C11          0.7975   3.2142   0.4846 C.3            1 <1>                0.0000
     12 C12          1.5754   1.8892   0.2461 C.3            1 <1>                0.0000
     13 C13          0.5520   0.8212   0.6387 C.3            1 <1>                0.0000
     14 C14          0.7357  -0.5407   0.0378 C.2            1 <1>                0.0000
     15 C15         -0.4241  -1.5039   0.2471 C.3            1 <1>                0.0000
     16 C16         -1.7470  -0.8509  -0.1484 C.3            1 <1>                0.0000
     17 C17         -1.9015   0.5473   0.4732 C.3            1 <1>                0.0000
     18 C18         -0.7431   1.3899  -0.0072 C.3            1 <1>                0.0000
     19 C19         -0.6251   1.2670  -1.5277 C.3            1 <1>                0.0000
     20 C20          1.8363  -0.8832  -0.6316 C.2            1 <1>                0.0000
     21 C21          1.9606  -2.2286  -1.1972 C.2            1 <1>                0.0000
     22 C22          3.0745  -2.5752  -1.8747 C.2            1 <1>                0.0000
     23 C23          3.2390  -3.9548  -2.4804 C.3            1 <1>                0.0000
     24 C24          4.6330  -4.4776  -2.1188 C.3            1 <1>                0.0000
     25 O25          4.8316  -5.7574  -2.7226 O.3            1 <1>                0.0000
     26 C26          5.6986  -3.5053  -2.6261 C.3            1 <1>                0.0000
     27 C27          5.5927  -2.1777  -1.8689 C.3            1 <1>                0.0000
     28 O28          6.5495  -1.2508  -2.3861 O.3            1 <1>                0.0000
     29 C29          4.1908  -1.6261  -2.0674 C.2            1 <1>                0.0000
     30 C30          3.9813  -0.3504  -2.3920 C.2            1 <1>                0.0000
     31 H31         -0.1476   4.7358   2.2780 H              1 <1>                0.0000
     32 H32         -1.6521   5.1876   1.4410 H              1 <1>                0.0000
     33 H33         -1.7019   4.6678   3.1426 H              1 <1>                0.0000
     34 H34         -0.9568   2.3999   2.4717 H              1 <1>                0.0000
     35 H35         -3.4515   3.2594   0.8322 H              1 <1>                0.0000
     36 H36         -2.8564   1.4231   3.1742 H              1 <1>                0.0000
     37 H37         -5.4339   1.9563   3.1670 H              1 <1>                0.0000
     38 H38         -5.0106   2.0342   0.2958 H              1 <1>                0.0000
     39 H39         -4.3302  -0.4152   1.5580 H              1 <1>                0.0000
     40 H40         -5.4434  -1.6610   3.4670 H              1 <1>                0.0000
     41 H41         -6.0813  -0.0652   4.1364 H              1 <1>                0.0000
     42 H42         -7.3464   0.3358   1.9747 H              1 <1>                0.0000
     43 H43         -6.7086  -1.2600   1.3053 H              1 <1>                0.0000
     44 H44         -1.1906   3.4657  -0.3857 H              1 <1>                0.0000
     45 H45          1.0627   3.9465  -0.2779 H              1 <1>                0.0000
     46 H46          1.0227   3.6072   1.4761 H              1 <1>                0.0000
     47 H47          1.8552   1.7890  -0.8026 H              1 <1>                0.0000
     48 H48          2.4545   1.8364   0.8883 H              1 <1>                0.0000
     49 H49          0.4526   0.7617   1.7226 H              1 <1>                0.0000
     50 H50         -0.2664  -2.3935  -0.3626 H              1 <1>                0.0000
     51 H51         -0.4660  -1.7922   1.2975 H              1 <1>                0.0000
     52 H52         -1.7895  -0.7637  -1.2341 H              1 <1>                0.0000
     53 H53         -2.5694  -1.4822   0.1883 H              1 <1>                0.0000
     54 H54         -2.8423   0.9936   0.1509 H              1 <1>                0.0000
     55 H55         -1.8794   0.4734   1.5604 H              1 <1>                0.0000
     56 H56         -1.5425   1.6267  -1.9936 H              1 <1>                0.0000
     57 H57          0.2177   1.8640  -1.8761 H              1 <1>                0.0000
     58 H58         -0.4663   0.2227  -1.7965 H              1 <1>                0.0000
     59 H59          2.6364  -0.1687  -0.7569 H              1 <1>                0.0000
     60 H60          1.1605  -2.9430  -1.0719 H              1 <1>                0.0000
     61 H61          2.4796  -4.6254  -2.0781 H              1 <1>                0.0000
     62 H62          3.1392  -3.8943  -3.5641 H              1 <1>                0.0000
     63 H63          4.7153  -4.5711  -1.0360 H              1 <1>                0.0000
     64 H64          4.1935  -6.4278  -2.4425 H              1 <1>                0.0000
     65 H65          6.6872  -3.9356  -2.4664 H              1 <1>                0.0000
     66 H66          5.5496  -3.3278  -3.6912 H              1 <1>                0.0000
     67 H67          5.7791  -2.3442  -0.8080 H              1 <1>                0.0000
     68 H68          6.5363  -0.3877  -1.9503 H              1 <1>                0.0000
     69 H69          4.8193   0.3187  -2.5202 H              1 <1>                0.0000
     70 H70          2.9737   0.0141  -2.5267 H              1 <1>                0.0000
@<TRIPOS>BOND
    1    1    2 1     
    2    1   31 1     
    3    1   32 1     
    4    1   33 1     
    5    2    3 1     
    6    2   10 1     
    7    2   34 1     
    8    3    4 2     
    9    3   35 1     
   10    4    5 1     
   11    4   36 1     
   12    5    6 1     
   13    5    7 1     
   14    5   37 1     
   15    6   38 1     
   16    7    9 1     
   17    7    8 1     
   18    7   39 1     
   19    8    9 1     
   20    8   40 1     
   21    8   41 1     
   22    9   42 1     
   23    9   43 1     
   24   10   18 1     
   25   10   11 1     
   26   10   44 1     
   27   11   12 1     
   28   11   45 1     
   29   11   46 1     
   30   12   13 1     
   31   12   47 1     
   32   12   48 1     
   33   13   18 1     
   34   13   14 1     
   35   13   49 1     
   36   14   15 1     
   37   14   20 2     
   38   15   16 1     
   39   15   50 1     
   40   15   51 1     
   41   16   17 1     
   42   16   52 1     
   43   16   53 1     
   44   17   18 1     
   45   17   54 1     
   46   17   55 1     
   47   18   19 1     
   48   19   56 1     
   49   19   57 1     
   50   19   58 1     
   51   20   21 1     
   52   20   59 1     
   53   21   22 2     
   54   21   60 1     
   55   22   29 1     
   56   22   23 1     
   57   23   24 1     
   58   23   61 1     
   59   23   62 1     
   60   24   25 1     
   61   24   26 1     
   62   24   63 1     
   63   25   64 1     
   64   26   27 1     
   65   26   65 1     
   66   26   66 1     
   67   27   28 1     
   68   27   29 1     
   69   27   67 1     
   70   28   68 1     
   71   29   30 2     
   72   30   69 1     
   73   30   70 1     
@<TRIPOS>SUBSTRUCTURE
      1 ****           1
@<TRIPOS>SET
DONOR_HYDROGENS      STATIC     ATOMS    <user>   **** ""
3 38 64 68
ATOM$RED        STATIC     ATOMS    COLORGROUP SYSTEM
3 38 64 68
