#       Name:                MFG
#       Creating user name   gbret
#       Creation time:       Fri Sep  9 12:13:37 2016


#       File generated by GOLD software.
#

@<TRIPOS>MOLECULE
MFG
    25    25     1
SMALL
NO_CHARGES


@<TRIPOS>ATOM
      1 F1          -0.0361  -5.2674  -0.6545 F              1 <1>                0.0000
      2 C2          -0.0544  -3.9165  -0.6471 C.ar           1 <1>                0.0000
      3 C3          -1.2624  -3.2401  -0.6261 C.ar           1 <1>                0.0000
      4 C4          -1.2799  -1.8583  -0.6186 C.ar           1 <1>                0.0000
      5 C5          -0.0920  -1.1513  -0.6319 C.ar           1 <1>                0.0000
      6 C6          -0.1124   0.3555  -0.6232 C.3            1 <1>                0.0000
      7 C7          -0.0983   0.8574   0.8221 C.3            1 <1>                0.0000
      8 C8          -0.1187   2.3642   0.8308 C.2            1 <1>                0.0000
      9 C9          -1.2739   3.0132   0.9517 C.2            1 <1>                0.0000
     10 C10          1.1365   3.1164   0.7059 C.2            1 <1>                0.0000
     11 N11          1.1189   4.4117   0.7134 N.2            1 <1>                0.0000
     12 C12          1.1147  -1.8256  -0.6528 C.ar           1 <1>                0.0000
     13 C13          1.1348  -3.2074  -0.6546 C.ar           1 <1>                0.0000
     14 H14         -2.1906  -3.7922  -0.6160 H              1 <1>                0.0000
     15 H15         -2.2220  -1.3304  -0.6026 H              1 <1>                0.0000
     16 H16          0.7650   0.7338  -1.1478 H              1 <1>                0.0000
     17 H17         -1.0146   0.7096  -1.1220 H              1 <1>                0.0000
     18 H18         -0.9757   0.4791   1.3466 H              1 <1>                0.0000
     19 H19          0.8039   0.5034   1.3208 H              1 <1>                0.0000
     20 H20         -1.2886   4.0930   0.9580 H              1 <1>                0.0000
     21 H21         -2.1970   2.4601   1.0436 H              1 <1>                0.0000
     22 H22          2.0742   2.5896   0.6077 H              1 <1>                0.0000
     23 H23          0.2767   4.8847   0.8015 H              1 <1>                0.0000
     24 H24          2.0421  -1.2723  -0.6636 H              1 <1>                0.0000
     25 H25          2.0776  -3.7340  -0.6710 H              1 <1>                0.0000
@<TRIPOS>BOND
    1    1    2 1     
    2    2   13 ar    
    3    2    3 ar    
    4    3    4 ar    
    5    3   14 1     
    6    4    5 ar    
    7    4   15 1     
    8    5    6 1     
    9    5   12 ar    
   10    6    7 1     
   11    6   16 1     
   12    6   17 1     
   13    7    8 1     
   14    7   18 1     
   15    7   19 1     
   16    8    9 2     
   17    8   10 1     
   18    9   20 1     
   19    9   21 1     
   20   10   11 2     
   21   10   22 1     
   22   11   23 1     
   23   12   13 ar    
   24   12   24 1     
   25   13   25 1     
@<TRIPOS>SUBSTRUCTURE
      1 ****           1
@<TRIPOS>SET
DONOR_HYDROGENS      STATIC     ATOMS    <user>   **** ""
1 23
ATOM$RED        STATIC     ATOMS    COLORGROUP SYSTEM
1 23
