#       Name:                MHA
#       Creating user name   gbret
#       Creation time:       Fri Sep  9 12:17:25 2016


#       File generated by GOLD software.
#

@<TRIPOS>MOLECULE
MHA
    22    21     1
SMALL
NO_CHARGES


@<TRIPOS>ATOM
      1 N1           0.7192   3.0768  -1.1471 N.am           1 <1>                0.0000
      2 C2           0.8926   1.7812  -0.8186 C.2            1 <1>                0.0000
      3 O3           2.0096   1.3477  -0.6302 O.2            1 <1>                0.0000
      4 C4          -0.3012   0.8713  -0.6853 C.3            1 <1>                0.0000
      5 N5           0.1502  -0.4788  -0.3229 N.4            1 <1>                0.0000
      6 H6           0.8530  -0.7858  -0.9785 H              1 <1>                0.0000
      7 C7           0.7196  -0.4578   1.0311 C.3            1 <1>                0.0000
      8 C8          -0.3488  -0.0665   2.0193 C.2            1 <1>                0.0000
      9 O9          -1.4481   0.2812   1.6228 O.co2          1 <1>                0.0000
     10 O10         -0.1139  -0.0976   3.2153 O.co2          1 <1>                0.0000
     11 C11         -0.9910  -1.4031  -0.3599 C.3            1 <1>                0.0000
     12 C12         -0.5009  -2.8146  -0.1635 C.2            1 <1>                0.0000
     13 O13          0.6821  -3.0260   0.0426 O.co2          1 <1>                0.0000
     14 O14         -1.2872  -3.7451  -0.2108 O.co2          1 <1>                0.0000
     15 H15          1.4879   3.6615  -1.2369 H              1 <1>                0.0000
     16 H16         -0.1741   3.4235  -1.2977 H              1 <1>                0.0000
     17 H17         -0.9643   1.2533   0.0909 H              1 <1>                0.0000
     18 H18         -0.8365   0.8329  -1.6340 H              1 <1>                0.0000
     19 H19          1.1002  -1.4482   1.2807 H              1 <1>                0.0000
     20 H20          1.5342   0.2653   1.0715 H              1 <1>                0.0000
     21 H21         -1.6913  -1.1477   0.4354 H              1 <1>                0.0000
     22 H22         -1.4920  -1.3234  -1.3246 H              1 <1>                0.0000
@<TRIPOS>BOND
    1    1    2 am    
    2    1   15 1     
    3    1   16 1     
    4    2    3 2     
    5    2    4 1     
    6    4    5 1     
    7    4   17 1     
    8    4   18 1     
    9    5    6 1     
   10    5    7 1     
   11    5   11 1     
   12    7    8 1     
   13    7   19 1     
   14    7   20 1     
   15    8    9 ar    
   16    8   10 ar    
   17   11   12 1     
   18   11   21 1     
   19   11   22 1     
   20   12   13 ar    
   21   12   14 ar    
@<TRIPOS>SUBSTRUCTURE
      1 ****           1
@<TRIPOS>SET
DONOR_HYDROGENS      STATIC     ATOMS    <user>   **** ""
3 15 16 6
ATOM$RED        STATIC     ATOMS    COLORGROUP SYSTEM
3 15 16 6
