#       Name:                MI4
#       Creating user name   gbret
#       Creation time:       Fri Sep  9 12:18:51 2016


#       File generated by GOLD software.
#

@<TRIPOS>MOLECULE
MI4
    93    98     1
SMALL
NO_CHARGES


@<TRIPOS>ATOM
      1 C1          -0.3407   5.6727   1.1373 C.3            1 <1>                0.0000
      2 C2          -0.3037   4.1555   0.9435 C.3            1 <1>                0.0000
      3 C3          -1.6926   3.6533   0.6438 C.2            1 <1>                0.0000
      4 C4          -2.3111   2.8842   1.5052 C.2            1 <1>                0.0000
      5 C5          -3.7000   2.3821   1.2055 C.3            1 <1>                0.0000
      6 C6          -3.7226   0.8554   1.3037 C.3            1 <1>                0.0000
      7 O7          -3.4607   0.4609   2.6520 O.3            1 <1>                0.0000
      8 C8          -5.0980   0.3373   0.8787 C.3            1 <1>                0.0000
      9 C9          -5.0668  -1.1906   0.8044 C.3            1 <1>                0.0000
     10 C10         -4.0731  -1.6285  -0.2734 C.3            1 <1>                0.0000
     11 C11         -4.0420  -3.1564  -0.3478 C.3            1 <1>                0.0000
     12 C12         -5.4369  -3.6785  -0.6977 C.3            1 <1>                0.0000
     13 C13         -6.4306  -3.2406   0.3801 C.3            1 <1>                0.0000
     14 C14         -5.9982  -3.8083   1.7334 C.3            1 <1>                0.0000
     15 C15         -4.6033  -3.2862   2.0833 C.3            1 <1>                0.0000
     16 C16         -3.6096  -3.7242   1.0056 C.3            1 <1>                0.0000
     17 C17         -4.6344  -1.7583   2.1577 C.3            1 <1>                0.0000
     18 C18         -6.4618  -1.7127   0.4544 C.3            1 <1>                0.0000
     19 C19          0.6253   3.8128  -0.2229 C.3            1 <1>                0.0000
     20 C20          2.0506   4.3634   0.0438 C.3            1 <1>                0.0000
     21 C21          2.9801   3.1239   0.1759 C.3            1 <1>                0.0000
     22 C22          2.0101   2.0173   0.5961 C.3            1 <1>                0.0000
     23 C23          2.4235   0.6081   0.2917 C.2            1 <1>                0.0000
     24 C24          1.3416  -0.4432   0.4937 C.3            1 <1>                0.0000
     25 C25          0.0514  -0.0341  -0.2142 C.3            1 <1>                0.0000
     26 C26         -0.3403   1.4178   0.1080 C.3            1 <1>                0.0000
     27 C27          0.7987   2.3061  -0.3351 C.3            1 <1>                0.0000
     28 C28          1.1898   1.9483  -1.7703 C.3            1 <1>                0.0000
     29 C29          3.6468   0.2995  -0.1250 C.2            1 <1>                0.0000
     30 C30          3.9958  -1.1013  -0.4085 C.2            1 <1>                0.0000
     31 C31          5.2458  -1.4239  -0.7228 C.2            1 <1>                0.0000
     32 C32          6.3461  -0.3890  -0.6614 C.3            1 <1>                0.0000
     33 C33          7.0398  -0.3305  -2.0283 C.3            1 <1>                0.0000
     34 O34          8.2338   0.4481  -1.9274 O.3            1 <1>                0.0000
     35 C35          7.3869  -1.7390  -2.4537 C.2            1 <1>                0.0000
     36 C36          8.6194  -2.0572  -2.7632 C.2            1 <1>                0.0000
     37 C37          6.2867  -2.7739  -2.5151 C.3            1 <1>                0.0000
     38 O38          6.8468  -4.0518  -2.8239 O.3            1 <1>                0.0000
     39 C39          5.5941  -2.8340  -1.1421 C.3            1 <1>                0.0000
     40 H40          0.6639   6.0359   1.3540 H              1 <1>                0.0000
     41 H41         -0.7098   6.1463   0.2275 H              1 <1>                0.0000
     42 H42         -1.0025   5.9169   1.9682 H              1 <1>                0.0000
     43 H43          0.0655   3.6819   1.8532 H              1 <1>                0.0000
     44 H44         -2.1780   3.9275  -0.2812 H              1 <1>                0.0000
     45 H45         -1.8256   2.6101   2.4302 H              1 <1>                0.0000
     46 H46         -4.4018   2.8029   1.9256 H              1 <1>                0.0000
     47 H47         -3.9867   2.6857   0.1987 H              1 <1>                0.0000
     48 H48         -2.9585   0.4378   0.6480 H              1 <1>                0.0000
     49 H49         -4.1027   0.7975   3.2920 H              1 <1>                0.0000
     50 H50         -5.8454   0.6504   1.6078 H              1 <1>                0.0000
     51 H51         -5.3528   0.7436  -0.1001 H              1 <1>                0.0000
     52 H52         -4.3812  -1.2240  -1.2376 H              1 <1>                0.0000
     53 H53         -3.0794  -1.2565  -0.0241 H              1 <1>                0.0000
     54 H54         -3.3340  -3.4684  -1.1156 H              1 <1>                0.0000
     55 H55         -5.7449  -3.2741  -1.6619 H              1 <1>                0.0000
     56 H56         -5.4147  -4.7670  -0.7507 H              1 <1>                0.0000
     57 H57         -7.4244  -3.6126   0.1308 H              1 <1>                0.0000
     58 H58         -6.7061  -3.4963   2.5013 H              1 <1>                0.0000
     59 H59         -5.9760  -4.8968   1.6804 H              1 <1>                0.0000
     60 H60         -4.2952  -3.6907   3.0475 H              1 <1>                0.0000
     61 H61         -3.5873  -4.8126   0.9526 H              1 <1>                0.0000
     62 H62         -2.6158  -3.3522   1.2548 H              1 <1>                0.0000
     63 H63         -3.6407  -1.3863   2.4070 H              1 <1>                0.0000
     64 H64         -5.3424  -1.4463   2.9256 H              1 <1>                0.0000
     65 H65         -7.1697  -1.4007   1.2223 H              1 <1>                0.0000
     66 H66         -6.7698  -1.3082  -0.5097 H              1 <1>                0.0000
     67 H67          0.2289   4.2187  -1.1536 H              1 <1>                0.0000
     68 H68          2.3735   4.9862  -0.7905 H              1 <1>                0.0000
     69 H69          2.0622   4.9402   0.9686 H              1 <1>                0.0000
     70 H70          3.4458   2.8866  -0.7806 H              1 <1>                0.0000
     71 H71          3.7355   3.2878   0.9444 H              1 <1>                0.0000
     72 H72          1.7303   2.1266   1.6439 H              1 <1>                0.0000
     73 H73          1.6862  -1.3952   0.0898 H              1 <1>                0.0000
     74 H74          1.1456  -0.5564   1.5599 H              1 <1>                0.0000
     75 H75          0.1899  -0.1341  -1.2908 H              1 <1>                0.0000
     76 H76         -0.7533  -0.6977   0.1022 H              1 <1>                0.0000
     77 H77         -1.2489   1.6844  -0.4319 H              1 <1>                0.0000
     78 H78         -0.5003   1.5286   1.1805 H              1 <1>                0.0000
     79 H79          0.3372   2.1092  -2.4301 H              1 <1>                0.0000
     80 H80          2.0197   2.5790  -2.0887 H              1 <1>                0.0000
     81 H81          1.4910   0.9017  -1.8146 H              1 <1>                0.0000
     82 H82          4.3849   1.0770  -0.2556 H              1 <1>                0.0000
     83 H83          3.2360  -1.8673  -0.3611 H              1 <1>                0.0000
     84 H84          5.9188   0.5857  -0.4258 H              1 <1>                0.0000
     85 H85          7.0695  -0.6690   0.1044 H              1 <1>                0.0000
     86 H86          6.3694   0.1207  -2.7598 H              1 <1>                0.0000
     87 H87          8.7234   0.5267  -2.7575 H              1 <1>                0.0000
     88 H88          9.3981  -1.3104  -2.7157 H              1 <1>                0.0000
     89 H89          8.8568  -3.0664  -3.0659 H              1 <1>                0.0000
     90 H90          5.5649  -2.4956  -3.2830 H              1 <1>                0.0000
     91 H91          7.3133  -4.0826  -3.6704 H              1 <1>                0.0000
     92 H92          6.2673  -3.2833  -0.4120 H              1 <1>                0.0000
     93 H93          4.6830  -3.4276  -1.2175 H              1 <1>                0.0000
@<TRIPOS>BOND
    1    1    2 1     
    2    1   40 1     
    3    1   41 1     
    4    1   42 1     
    5    2    3 1     
    6    2   19 1     
    7    2   43 1     
    8    3    4 2     
    9    3   44 1     
   10    4    5 1     
   11    4   45 1     
   12    5    6 1     
   13    5   46 1     
   14    5   47 1     
   15    6    7 1     
   16    6    8 1     
   17    6   48 1     
   18    7   49 1     
   19    8    9 1     
   20    8   50 1     
   21    8   51 1     
   22    9   17 1     
   23    9   18 1     
   24    9   10 1     
   25   10   11 1     
   26   10   52 1     
   27   10   53 1     
   28   11   16 1     
   29   11   12 1     
   30   11   54 1     
   31   12   13 1     
   32   12   55 1     
   33   12   56 1     
   34   13   14 1     
   35   13   18 1     
   36   13   57 1     
   37   14   15 1     
   38   14   58 1     
   39   14   59 1     
   40   15   16 1     
   41   15   17 1     
   42   15   60 1     
   43   16   61 1     
   44   16   62 1     
   45   17   63 1     
   46   17   64 1     
   47   18   65 1     
   48   18   66 1     
   49   19   27 1     
   50   19   20 1     
   51   19   67 1     
   52   20   21 1     
   53   20   68 1     
   54   20   69 1     
   55   21   22 1     
   56   21   70 1     
   57   21   71 1     
   58   22   27 1     
   59   22   23 1     
   60   22   72 1     
   61   23   24 1     
   62   23   29 2     
   63   24   25 1     
   64   24   73 1     
   65   24   74 1     
   66   25   26 1     
   67   25   75 1     
   68   25   76 1     
   69   26   27 1     
   70   26   77 1     
   71   26   78 1     
   72   27   28 1     
   73   28   79 1     
   74   28   80 1     
   75   28   81 1     
   76   29   30 1     
   77   29   82 1     
   78   30   31 2     
   79   30   83 1     
   80   31   39 1     
   81   31   32 1     
   82   32   33 1     
   83   32   84 1     
   84   32   85 1     
   85   33   34 1     
   86   33   35 1     
   87   33   86 1     
   88   34   87 1     
   89   35   36 2     
   90   35   37 1     
   91   36   88 1     
   92   36   89 1     
   93   37   38 1     
   94   37   39 1     
   95   37   90 1     
   96   38   91 1     
   97   39   92 1     
   98   39   93 1     
@<TRIPOS>SUBSTRUCTURE
      1 ****           1
@<TRIPOS>SET
DONOR_HYDROGENS      STATIC     ATOMS    <user>   **** ""
3 49 87 91
ATOM$RED        STATIC     ATOMS    COLORGROUP SYSTEM
3 49 87 91
