#       Name:                MIF
#       Creating user name   gbret
#       Creation time:       Fri Sep  9 12:19:22 2016


#       File generated by GOLD software.
#

@<TRIPOS>MOLECULE
MIF
    30    31     1
SMALL
NO_CHARGES


@<TRIPOS>ATOM
      1 O1           2.7801   2.2302   0.7538 O.3            1 <1>                0.0000
      2 C2           2.7995   0.8013   0.7459 C.3            1 <1>                0.0000
      3 C3           1.3641   0.2718   0.7568 C.3            1 <1>                0.0000
      4 O4           0.7084   0.6460  -0.4577 O.3            1 <1>                0.0000
      5 C5          -0.6394   0.2022  -0.5554 C.3            1 <1>                0.0000
      6 S6          -1.6443   0.9609   0.7590 S.3            1 <1>                0.0000
      7 C7          -2.7321   1.7941  -0.3666 C.2            1 <1>                0.0000
      8 N8          -3.7374   2.5577  -0.0448 N.pl3          1 <1>                0.0000
      9 H9          -3.9483   2.7139   0.8890 H              1 <1>                0.0000
     10 H10         -4.2749   2.9701  -0.7390 H              1 <1>                0.0000
     11 N11         -2.3206   1.4869  -1.6382 N.am           1 <1>                0.0000
     12 C12         -1.2776   0.6940  -1.8281 C.2            1 <1>                0.0000
     13 O13         -0.8722   0.3897  -2.9296 O.2            1 <1>                0.0000
     14 C14         -0.7216  -1.3177  -0.4619 C.3            1 <1>                0.0000
     15 O15         -0.0484  -1.9016  -1.5790 O.3            1 <1>                0.0000
     16 C16         -0.0541  -1.7815   0.8374 C.3            1 <1>                0.0000
     17 O17         -0.0414  -3.2096   0.8854 O.3            1 <1>                0.0000
     18 C18          1.3838  -1.2545   0.8742 C.3            1 <1>                0.0000
     19 O19          2.1229  -1.8077  -0.2165 O.3            1 <1>                0.0000
     20 H20          3.6580   2.6355   0.7476 H              1 <1>                0.0000
     21 H21          3.3097   0.4498  -0.1509 H              1 <1>                0.0000
     22 H22          3.3267   0.4403   1.6290 H              1 <1>                0.0000
     23 H23          0.8269   0.6948   1.6056 H              1 <1>                0.0000
     24 H24         -2.7954   1.8519  -2.4012 H              1 <1>                0.0000
     25 H25         -1.7670  -1.6265  -0.4651 H              1 <1>                0.0000
     26 H26         -0.0610  -2.8685  -1.5844 H              1 <1>                0.0000
     27 H27         -0.6087  -1.3927   1.6915 H              1 <1>                0.0000
     28 H28          0.3676  -3.5728   1.6828 H              1 <1>                0.0000
     29 H29          1.8527  -1.5413   1.8154 H              1 <1>                0.0000
     30 H30          3.0442  -1.5163  -0.2553 H              1 <1>                0.0000
@<TRIPOS>BOND
    1    1    2 1     
    2    1   20 1     
    3    2    3 1     
    4    2   21 1     
    5    2   22 1     
    6    3   18 1     
    7    3    4 1     
    8    3   23 1     
    9    4    5 1     
   10    5   12 1     
   11    5    6 1     
   12    5   14 1     
   13    6    7 1     
   14    7    8 2     
   15    7   11 1     
   16    8    9 1     
   17    8   10 1     
   18   11   12 am    
   19   11   24 1     
   20   12   13 2     
   21   14   15 1     
   22   14   16 1     
   23   14   25 1     
   24   15   26 1     
   25   16   17 1     
   26   16   18 1     
   27   16   27 1     
   28   17   28 1     
   29   18   19 1     
   30   18   29 1     
   31   19   30 1     
@<TRIPOS>SUBSTRUCTURE
      1 ****           1
@<TRIPOS>SET
DONOR_HYDROGENS      STATIC     ATOMS    <user>   **** ""
7 20 9 10 24 26 28 30
ATOM$RED        STATIC     ATOMS    COLORGROUP SYSTEM
7 20 9 10 24 26 28 30
