#       Name:                MMY
#       Creating user name   gbret
#       Creation time:       Fri Sep  9 12:26:20 2016


#       File generated by GOLD software.
#

@<TRIPOS>MOLECULE
MMY
    48    52     1
SMALL
NO_CHARGES


@<TRIPOS>ATOM
      1 N1          -0.1915   7.1082  -0.0851 N.pl3          1 <1>                0.0000
      2 C2          -0.1727   5.7262  -0.0927 C.ar           1 <1>                0.0000
      3 N3          -1.3226   5.0664  -0.0907 N.ar           1 <1>                0.0000
      4 C4          -1.3463   3.7459  -0.0982 C.ar           1 <1>                0.0000
      5 C5          -0.1364   3.0455  -0.1083 C.ar           1 <1>                0.0000
      6 C6           1.0541   3.7785  -0.1101 C.ar           1 <1>                0.0000
      7 N7           0.9946   5.0979  -0.1072 N.ar           1 <1>                0.0000
      8 C8          -0.1163   1.5634  -0.1165 C.ar           1 <1>                0.0000
      9 N9          -1.0483   0.8685   0.5393 N.ar           1 <1>                0.0000
     10 C10         -1.0280  -0.4548   0.5304 C.ar           1 <1>                0.0000
     11 N11         -0.0996  -1.1394  -0.1173 N.ar           1 <1>                0.0000
     12 C12          0.8678  -0.5158  -0.7977 C.ar           1 <1>                0.0000
     13 N13          1.9187  -1.0377  -1.5313 N.pl3          1 <1>                0.0000
     14 C14          2.7266   0.0447  -2.1013 C.3            1 <1>                0.0000
     15 C15          2.0480   1.3432  -1.6315 C.3            1 <1>                0.0000
     16 C16          0.8705   0.8736  -0.8122 C.ar           1 <1>                0.0000
     17 C17          2.1737  -2.4015  -1.7038 C.ar           1 <1>                0.0000
     18 C18          1.3403  -3.3553  -1.1237 C.ar           1 <1>                0.0000
     19 C19          1.6337  -4.6940  -1.3235 C.ar           1 <1>                0.0000
     20 C20          2.7350  -5.0376  -2.0859 C.ar           1 <1>                0.0000
     21 N21          3.5044  -4.1104  -2.6216 N.ar           1 <1>                0.0000
     22 C22          3.2582  -2.8255  -2.4608 C.ar           1 <1>                0.0000
     23 N23         -2.0092  -1.1445   1.2212 N.3            1 <1>                0.0000
     24 C24         -1.4151  -2.0624   2.2041 C.3            1 <1>                0.0000
     25 C25         -2.5302  -2.8460   2.9015 C.3            1 <1>                0.0000
     26 O26         -3.4469  -1.9278   3.5031 O.3            1 <1>                0.0000
     27 C27         -4.0446  -1.0193   2.5744 C.3            1 <1>                0.0000
     28 C28         -2.9449  -0.2171   1.8736 C.3            1 <1>                0.0000
     29 H29          0.6419   7.6046  -0.0903 H              1 <1>                0.0000
     30 H30         -1.0380   7.5818  -0.0785 H              1 <1>                0.0000
     31 H31         -2.2867   3.2148  -0.0962 H              1 <1>                0.0000
     32 H32          2.0085   3.2731  -0.1174 H              1 <1>                0.0000
     33 H33          3.7479  -0.0064  -1.7239 H              1 <1>                0.0000
     34 H34          2.7215  -0.0123  -3.1898 H              1 <1>                0.0000
     35 H35          2.7323   1.9309  -1.0195 H              1 <1>                0.0000
     36 H36          1.7049   1.9250  -2.4869 H              1 <1>                0.0000
     37 H37          0.4868  -3.0582  -0.5325 H              1 <1>                0.0000
     38 H38          1.0098  -5.4608  -0.8886 H              1 <1>                0.0000
     39 H39          2.9684  -6.0801  -2.2445 H              1 <1>                0.0000
     40 H40          3.9112  -2.0951  -2.9152 H              1 <1>                0.0000
     41 H41         -0.7456  -2.7563   1.6958 H              1 <1>                0.0000
     42 H42         -0.8546  -1.4906   2.9437 H              1 <1>                0.0000
     43 H43         -3.0566  -3.4591   2.1699 H              1 <1>                0.0000
     44 H44         -2.0988  -3.4863   3.6709 H              1 <1>                0.0000
     45 H45         -4.6151  -1.5792   1.8333 H              1 <1>                0.0000
     46 H46         -4.7085  -0.3384   3.1072 H              1 <1>                0.0000
     47 H47         -2.4089   0.3841   2.6080 H              1 <1>                0.0000
     48 H48         -3.3921   0.4359   1.1242 H              1 <1>                0.0000
@<TRIPOS>BOND
    1    1    2 1     
    2    1   29 1     
    3    1   30 1     
    4    2    7 ar    
    5    2    3 ar    
    6    3    4 ar    
    7    4    5 ar    
    8    4   31 1     
    9    5    6 ar    
   10    5    8 1     
   11    6    7 ar    
   12    6   32 1     
   13    8   16 ar    
   14    8    9 ar    
   15    9   10 ar    
   16   10   11 ar    
   17   10   23 1     
   18   11   12 ar    
   19   12   16 ar    
   20   12   13 1     
   21   13   14 1     
   22   13   17 1     
   23   14   15 1     
   24   14   33 1     
   25   14   34 1     
   26   15   16 1     
   27   15   35 1     
   28   15   36 1     
   29   17   22 ar    
   30   17   18 ar    
   31   18   19 ar    
   32   18   37 1     
   33   19   20 ar    
   34   19   38 1     
   35   20   21 ar    
   36   20   39 1     
   37   21   22 ar    
   38   22   40 1     
   39   23   28 1     
   40   23   24 1     
   41   24   25 1     
   42   24   41 1     
   43   24   42 1     
   44   25   26 1     
   45   25   43 1     
   46   25   44 1     
   47   26   27 1     
   48   27   28 1     
   49   27   45 1     
   50   27   46 1     
   51   28   47 1     
   52   28   48 1     
@<TRIPOS>SUBSTRUCTURE
      1 ****           1
@<TRIPOS>SET
DONOR_HYDROGENS      STATIC     ATOMS    <user>   **** ""
2 29 30
ATOM$RED        STATIC     ATOMS    COLORGROUP SYSTEM
2 29 30
