#       Name:                MR4
#       Creating user name   gbret
#       Creation time:       Fri Sep  9 12:33:03 2016


#       File generated by GOLD software.
#

@<TRIPOS>MOLECULE
MR4
    31    33     1
SMALL
NO_CHARGES


@<TRIPOS>ATOM
      1 C1          -0.0736   3.8501   1.6759 C.3            1 <1>                0.0000
      2 C2          -0.0531   2.3432   1.6676 C.ar           1 <1>                0.0000
      3 C3          -0.0495   1.6618   0.4701 C.ar           1 <1>                0.0000
      4 C4          -0.0306   0.2653   0.4635 C.ar           1 <1>                0.0000
      5 C5          -0.0154  -0.4349   1.6719 C.ar           1 <1>                0.0000
      6 C6          -0.0191   0.2540   2.8652 C.ar           1 <1>                0.0000
      7 C7          -0.0027  -0.5005   4.1696 C.3            1 <1>                0.0000
      8 C8          -0.0322   1.6432   2.8674 C.ar           1 <1>                0.0000
      9 O9          -0.0358   2.3184   4.0456 O.3            1 <1>                0.0000
     10 C10         -0.0271  -0.4691  -0.8179 C.2            1 <1>                0.0000
     11 N11         -0.0350   0.0883  -2.0027 N.2            1 <1>                0.0000
     12 C12         -0.0277  -0.8895  -2.9451 C.ar           1 <1>                0.0000
     13 C13         -0.0308  -0.8825  -4.3421 C.ar           1 <1>                0.0000
     14 C14         -0.0209  -2.0747  -5.0308 C.ar           1 <1>                0.0000
     15 C15         -0.0079  -3.2812  -4.3464 C.ar           1 <1>                0.0000
     16 C16         -0.0051  -3.3035  -2.9669 C.ar           1 <1>                0.0000
     17 C17         -0.0145  -2.1133  -2.2565 C.ar           1 <1>                0.0000
     18 O18         -0.0095  -1.8101  -0.9392 O.3            1 <1>                0.0000
     19 H19          0.9490   4.2274   1.6682 H              1 <1>                0.0000
     20 H20         -0.6007   4.2112   0.7928 H              1 <1>                0.0000
     21 H21         -0.5838   4.2016   2.5727 H              1 <1>                0.0000
     22 H22         -0.0617   2.2068  -0.4622 H              1 <1>                0.0000
     23 H23         -0.0010  -1.5148   1.6710 H              1 <1>                0.0000
     24 H24          1.0288  -0.6684   4.4793 H              1 <1>                0.0000
     25 H25         -0.5209   0.0810   4.9322 H              1 <1>                0.0000
     26 H26         -0.5042  -1.4597   4.0409 H              1 <1>                0.0000
     27 H27          0.8465   2.5224   4.3847 H              1 <1>                0.0000
     28 H28         -0.0413   0.0541  -4.8797 H              1 <1>                0.0000
     29 H29         -0.0237  -2.0704  -6.1108 H              1 <1>                0.0000
     30 H30         -0.0002  -4.2099  -4.8975 H              1 <1>                0.0000
     31 H31          0.0043  -4.2470  -2.4414 H              1 <1>                0.0000
@<TRIPOS>BOND
    1    1    2 1     
    2    1   19 1     
    3    1   20 1     
    4    1   21 1     
    5    2    8 ar    
    6    2    3 ar    
    7    3    4 ar    
    8    3   22 1     
    9    4    5 ar    
   10    4   10 1     
   11    5    6 ar    
   12    5   23 1     
   13    6    7 1     
   14    6    8 ar    
   15    7   24 1     
   16    7   25 1     
   17    7   26 1     
   18    8    9 1     
   19    9   27 1     
   20   10   18 1     
   21   10   11 2     
   22   11   12 1     
   23   12   17 ar    
   24   12   13 ar    
   25   13   14 ar    
   26   13   28 1     
   27   14   15 ar    
   28   14   29 1     
   29   15   16 ar    
   30   15   30 1     
   31   16   17 ar    
   32   16   31 1     
   33   17   18 1     
@<TRIPOS>SUBSTRUCTURE
      1 ****           1
@<TRIPOS>SET
DONOR_HYDROGENS      STATIC     ATOMS    <user>   **** ""
1 27
ATOM$RED        STATIC     ATOMS    COLORGROUP SYSTEM
1 27
