#       Name:                MR8
#       Creating user name   gbret
#       Creation time:       Fri Sep  9 12:33:14 2016


#       File generated by GOLD software.
#

@<TRIPOS>MOLECULE
MR8
   147   150     1
SMALL
NO_CHARGES


@<TRIPOS>ATOM
      1 C1          -1.2512  -4.3653   5.1091 C.3            1 <1>                0.0000
      2 O2          -0.2075  -4.5528   4.1513 O.3            1 <1>                0.0000
      3 C3          -0.3619  -3.7738   2.9633 C.3            1 <1>                0.0000
      4 C4           0.9985  -3.6043   2.2841 C.3            1 <1>                0.0000
      5 C5           0.8332  -2.7702   1.0122 C.3            1 <1>                0.0000
      6 C6           2.1937  -2.6007   0.3330 C.3            1 <1>                0.0000
      7 C7           2.0065  -1.9062  -1.0174 C.3            1 <1>                0.0000
      8 C8           1.5893  -0.4519  -0.7895 C.3            1 <1>                0.0000
      9 C9           3.3228  -1.9430  -1.7965 C.3            1 <1>                0.0000
     10 C10          3.0420  -2.3154  -3.2531 C.3            1 <1>                0.0000
     11 C11          1.5925  -2.0566  -3.5701 C.2            1 <1>                0.0000
     12 O12          1.1284  -0.9533  -3.4100 O.2            1 <1>                0.0000
     13 C13          0.7209  -3.1705  -4.0869 C.3            1 <1>                0.0000
     14 C14          0.8051  -4.3660  -3.1358 C.3            1 <1>                0.0000
     15 C15         -0.7067  -2.6981  -4.1732 C.2            1 <1>                0.0000
     16 C16         -1.4790  -3.1210  -5.1424 C.2            1 <1>                0.0000
     17 C17         -0.9381  -4.0781  -6.1731 C.3            1 <1>                0.0000
     18 C18         -2.9080  -2.6508  -5.2280 C.3            1 <1>                0.0000
     19 O19         -3.6806  -3.6049  -5.9592 O.3            1 <1>                0.0000
     20 C20         -3.7213  -3.3635  -7.3671 C.3            1 <1>                0.0000
     21 C21         -3.4805  -2.5045  -3.8166 C.3            1 <1>                0.0000
     22 O22         -2.4637  -2.0182  -2.9382 O.3            1 <1>                0.0000
     23 C23         -2.5263  -2.5629  -1.6185 C.3            1 <1>                0.0000
     24 C24         -4.6316  -1.5324  -3.8392 C.2            1 <1>                0.0000
     25 O25         -5.2320  -1.3322  -4.8676 O.2            1 <1>                0.0000
     26 C26         -5.0345  -0.8105  -2.5795 C.3            1 <1>                0.0000
     27 C27         -4.2467   0.4962  -2.4666 C.3            1 <1>                0.0000
     28 C28         -6.5321  -0.5006  -2.6249 C.3            1 <1>                0.0000
     29 C29         -6.9645   0.1197  -1.2947 C.3            1 <1>                0.0000
     30 C30         -6.8128  -0.9137  -0.1766 C.3            1 <1>                0.0000
     31 C31         -6.0983   1.3152  -0.9948 C.2            1 <1>                0.0000
     32 C32         -5.4172   1.3759   0.1482 C.2            1 <1>                0.0000
     33 C33         -4.5703   2.5359   0.4343 C.2            1 <1>                0.0000
     34 C34         -3.8509   2.5792   1.5744 C.2            1 <1>                0.0000
     35 C35         -2.9895   3.7312   1.8541 C.2            1 <1>                0.0000
     36 C36         -2.2518   3.7530   2.9654 C.2            1 <1>                0.0000
     37 C37         -2.3125   2.5985   3.9322 C.3            1 <1>                0.0000
     38 C38         -1.3571   4.9314   3.2545 C.3            1 <1>                0.0000
     39 C39         -0.1286   4.4570   4.0344 C.3            1 <1>                0.0000
     40 C40          1.1398   4.9849   3.3615 C.3            1 <1>                0.0000
     41 C41          1.7665   6.0703   4.2375 C.3            1 <1>                0.0000
     42 C42          3.0781   6.5444   3.6098 C.3            1 <1>                0.0000
     43 C43          4.0066   5.3472   3.3930 C.3            1 <1>                0.0000
     44 C44          4.3813   4.7396   4.7462 C.3            1 <1>                0.0000
     45 C45          3.2862   4.2976   2.5432 C.3            1 <1>                0.0000
     46 O46          2.9812   4.8548   1.2618 O.3            1 <1>                0.0000
     47 O47          2.0703   3.9141   3.1896 O.3            1 <1>                0.0000
     48 C48          4.1736   3.0930   2.3619 C.2            1 <1>                0.0000
     49 O49          4.6916   2.5704   3.3198 O.2            1 <1>                0.0000
     50 C50          4.4080   2.5499   0.9937 C.2            1 <1>                0.0000
     51 O51          3.8597   3.0680   0.0430 O.2            1 <1>                0.0000
     52 N52          5.2192   1.4935   0.7964 N.am           1 <1>                0.0000
     53 C53          5.9135   0.8777   1.9303 C.3            1 <1>                0.0000
     54 C54          7.4007   0.7325   1.6024 C.3            1 <1>                0.0000
     55 C55          7.5580  -0.0066   0.2716 C.3            1 <1>                0.0000
     56 C56          6.9016   0.8111  -0.8425 C.3            1 <1>                0.0000
     57 C57          5.4067   0.9638  -0.5553 C.3            1 <1>                0.0000
     58 C58          4.7268  -0.3751  -0.6783 C.2            1 <1>                0.0000
     59 O59          4.8799  -1.2122   0.1794 O.2            1 <1>                0.0000
     60 O60          3.9539  -0.6378  -1.7406 O.3            1 <1>                0.0000
     61 O61         -0.9401   5.5265   2.0241 O.3            1 <1>                0.0000
     62 C62         -0.8966   6.9545   2.0545 C.3            1 <1>                0.0000
     63 C63         -0.1284  -3.4809   0.0576 C.3            1 <1>                0.0000
     64 C64         -1.4888  -3.6504   0.7368 C.3            1 <1>                0.0000
     65 C65         -1.3235  -4.4845   2.0087 C.3            1 <1>                0.0000
     66 O66         -0.7965  -5.7691   1.6708 O.3            1 <1>                0.0000
     67 H67         -1.1496  -5.1019   5.9061 H              1 <1>                0.0000
     68 H68         -1.1819  -3.3623   5.5303 H              1 <1>                0.0000
     69 H69         -2.2183  -4.4885   4.6216 H              1 <1>                0.0000
     70 H70         -0.7639  -2.7940   3.2211 H              1 <1>                0.0000
     71 H71          1.6836  -3.0980   2.9642 H              1 <1>                0.0000
     72 H72          1.4005  -4.5841   2.0264 H              1 <1>                0.0000
     73 H73          0.4312  -1.7903   1.2700 H              1 <1>                0.0000
     74 H74          2.8428  -1.9956   0.9659 H              1 <1>                0.0000
     75 H75          2.6470  -3.5798   0.1783 H              1 <1>                0.0000
     76 H76          1.2328  -2.4212  -1.5867 H              1 <1>                0.0000
     77 H77          0.5035  -0.3727  -0.8436 H              1 <1>                0.0000
     78 H78          1.9288  -0.1263   0.1938 H              1 <1>                0.0000
     79 H79          2.0382   0.1793  -1.5563 H              1 <1>                0.0000
     80 H80          3.9860  -2.6861  -1.3537 H              1 <1>                0.0000
     81 H81          3.6703  -1.7131  -3.9093 H              1 <1>                0.0000
     82 H82          3.2643  -3.3713  -3.4071 H              1 <1>                0.0000
     83 H83          1.0639  -3.4699  -5.0773 H              1 <1>                0.0000
     84 H84          0.4634  -4.0668  -2.1450 H              1 <1>                0.0000
     85 H85          0.1743  -5.1727  -3.5094 H              1 <1>                0.0000
     86 H86          1.8375  -4.7103  -3.0755 H              1 <1>                0.0000
     87 H87         -1.0935  -2.0108  -3.4354 H              1 <1>                0.0000
     88 H88         -0.2278  -4.7569  -5.7013 H              1 <1>                0.0000
     89 H89         -1.7594  -4.6523  -6.6021 H              1 <1>                0.0000
     90 H90         -0.4361  -3.5174  -6.9616 H              1 <1>                0.0000
     91 H91         -2.9438  -1.6874  -5.7366 H              1 <1>                0.0000
     92 H92         -4.3268  -4.1305  -7.8499 H              1 <1>                0.0000
     93 H93         -4.1590  -2.3831  -7.5551 H              1 <1>                0.0000
     94 H94         -2.7089  -3.3927  -7.7701 H              1 <1>                0.0000
     95 H95         -3.8312  -3.4746  -3.4645 H              1 <1>                0.0000
     96 H96         -1.8158  -2.0423  -0.9765 H              1 <1>                0.0000
     97 H97         -3.5338  -2.4384  -1.2215 H              1 <1>                0.0000
     98 H98         -2.2771  -3.6235  -1.6511 H              1 <1>                0.0000
     99 H99         -4.8199  -1.4398  -1.7157 H              1 <1>                0.0000
    100 H100        -4.7357   1.2678  -3.0612 H              1 <1>                0.0000
    101 H101        -4.2107   0.8098  -1.4232 H              1 <1>                0.0000
    102 H102        -3.2324   0.3420  -2.8348 H              1 <1>                0.0000
    103 H103        -6.7338   0.2000  -3.4352 H              1 <1>                0.0000
    104 H104        -7.0889  -1.4223  -2.7941 H              1 <1>                0.0000
    105 H105        -8.0063   0.4330  -1.3612 H              1 <1>                0.0000
    106 H106        -5.7708  -1.2265  -0.1099 H              1 <1>                0.0000
    107 H107        -7.1208  -0.4716   0.7709 H              1 <1>                0.0000
    108 H108        -7.4388  -1.7790  -0.3943 H              1 <1>                0.0000
    109 H109        -6.0292   2.1237  -1.7075 H              1 <1>                0.0000
    110 H110        -5.4898   0.5702   0.8639 H              1 <1>                0.0000
    111 H111        -4.5216   3.3557  -0.2671 H              1 <1>                0.0000
    112 H112        -3.9099   1.7649   2.2814 H              1 <1>                0.0000
    113 H113        -2.9523   4.5602   1.1629 H              1 <1>                0.0000
    114 H114        -2.0351   1.6786   3.4175 H              1 <1>                0.0000
    115 H115        -1.6207   2.7772   4.7553 H              1 <1>                0.0000
    116 H116        -3.3257   2.5048   4.3230 H              1 <1>                0.0000
    117 H117        -1.9029   5.6655   3.8472 H              1 <1>                0.0000
    118 H118        -0.1803   4.8320   5.0566 H              1 <1>                0.0000
    119 H119        -0.1057   3.3673   4.0483 H              1 <1>                0.0000
    120 H120         0.8870   5.4042   2.3879 H              1 <1>                0.0000
    121 H121         1.0788   6.9120   4.3200 H              1 <1>                0.0000
    122 H122         1.9647   5.6659   5.2301 H              1 <1>                0.0000
    123 H123         2.8705   7.0208   2.6517 H              1 <1>                0.0000
    124 H124         3.5599   7.2616   4.2743 H              1 <1>                0.0000
    125 H125         4.9098   5.6755   2.8787 H              1 <1>                0.0000
    126 H126         3.5070   4.2563   5.1822 H              1 <1>                0.0000
    127 H127         5.1722   4.0026   4.6071 H              1 <1>                0.0000
    128 H128         4.7317   5.5270   5.4136 H              1 <1>                0.0000
    129 H129         3.7471   5.2238   0.8010 H              1 <1>                0.0000
    130 H130         5.7960   1.5064   2.8129 H              1 <1>                0.0000
    131 H131         5.4872  -0.1062   2.1263 H              1 <1>                0.0000
    132 H132         7.8541   1.7207   1.5253 H              1 <1>                0.0000
    133 H133         7.8938   0.1668   2.3930 H              1 <1>                0.0000
    134 H134         8.6174  -0.1372   0.0511 H              1 <1>                0.0000
    135 H135         7.0769  -0.9824   0.3384 H              1 <1>                0.0000
    136 H136         7.3645   1.7967  -0.8902 H              1 <1>                0.0000
    137 H137         7.0376   0.3003  -1.7958 H              1 <1>                0.0000
    138 H138         4.9701   1.6583  -1.2784 H              1 <1>                0.0000
    139 H139        -0.4829   7.3255   1.1168 H              1 <1>                0.0000
    140 H140        -1.9052   7.3461   2.1868 H              1 <1>                0.0000
    141 H141        -0.2684   7.2813   2.8832 H              1 <1>                0.0000
    142 H142        -0.2462  -2.8866  -0.8485 H              1 <1>                0.0000
    143 H143         0.2736  -4.4607  -0.2001 H              1 <1>                0.0000
    144 H144        -1.8908  -2.6706   0.9946 H              1 <1>                0.0000
    145 H145        -2.1739  -4.1567   0.0568 H              1 <1>                0.0000
    146 H146        -2.2927  -4.6053   2.4926 H              1 <1>                0.0000
    147 H147        -1.3555  -6.2771   1.0671 H              1 <1>                0.0000
@<TRIPOS>BOND
    1    1    2 1     
    2    1   67 1     
    3    1   68 1     
    4    1   69 1     
    5    2    3 1     
    6    3   65 1     
    7    3    4 1     
    8    3   70 1     
    9    4    5 1     
   10    4   71 1     
   11    4   72 1     
   12    5    6 1     
   13    5   63 1     
   14    5   73 1     
   15    6    7 1     
   16    6   74 1     
   17    6   75 1     
   18    7    8 1     
   19    7    9 1     
   20    7   76 1     
   21    8   77 1     
   22    8   78 1     
   23    8   79 1     
   24    9   60 1     
   25    9   10 1     
   26    9   80 1     
   27   10   11 1     
   28   10   81 1     
   29   10   82 1     
   30   11   12 2     
   31   11   13 1     
   32   13   14 1     
   33   13   15 1     
   34   13   83 1     
   35   14   84 1     
   36   14   85 1     
   37   14   86 1     
   38   15   16 2     
   39   15   87 1     
   40   16   17 1     
   41   16   18 1     
   42   17   88 1     
   43   17   89 1     
   44   17   90 1     
   45   18   19 1     
   46   18   21 1     
   47   18   91 1     
   48   19   20 1     
   49   20   92 1     
   50   20   93 1     
   51   20   94 1     
   52   21   22 1     
   53   21   24 1     
   54   21   95 1     
   55   22   23 1     
   56   23   96 1     
   57   23   97 1     
   58   23   98 1     
   59   24   25 2     
   60   24   26 1     
   61   26   27 1     
   62   26   28 1     
   63   26   99 1     
   64   27  100 1     
   65   27  101 1     
   66   27  102 1     
   67   28   29 1     
   68   28  103 1     
   69   28  104 1     
   70   29   30 1     
   71   29   31 1     
   72   29  105 1     
   73   30  106 1     
   74   30  107 1     
   75   30  108 1     
   76   31   32 2     
   77   31  109 1     
   78   32   33 1     
   79   32  110 1     
   80   33   34 2     
   81   33  111 1     
   82   34   35 1     
   83   34  112 1     
   84   35   36 2     
   85   35  113 1     
   86   36   37 1     
   87   36   38 1     
   88   37  114 1     
   89   37  115 1     
   90   37  116 1     
   91   38   39 1     
   92   38   61 1     
   93   38  117 1     
   94   39   40 1     
   95   39  118 1     
   96   39  119 1     
   97   40   47 1     
   98   40   41 1     
   99   40  120 1     
  100   41   42 1     
  101   41  121 1     
  102   41  122 1     
  103   42   43 1     
  104   42  123 1     
  105   42  124 1     
  106   43   44 1     
  107   43   45 1     
  108   43  125 1     
  109   44  126 1     
  110   44  127 1     
  111   44  128 1     
  112   45   46 1     
  113   45   47 1     
  114   45   48 1     
  115   46  129 1     
  116   48   49 2     
  117   48   50 1     
  118   50   51 2     
  119   50   52 am    
  120   52   57 1     
  121   52   53 1     
  122   53   54 1     
  123   53  130 1     
  124   53  131 1     
  125   54   55 1     
  126   54  132 1     
  127   54  133 1     
  128   55   56 1     
  129   55  134 1     
  130   55  135 1     
  131   56   57 1     
  132   56  136 1     
  133   56  137 1     
  134   57   58 1     
  135   57  138 1     
  136   58   59 2     
  137   58   60 1     
  138   61   62 1     
  139   62  139 1     
  140   62  140 1     
  141   62  141 1     
  142   63   64 1     
  143   63  142 1     
  144   63  143 1     
  145   64   65 1     
  146   64  144 1     
  147   64  145 1     
  148   65   66 1     
  149   65  146 1     
  150   66  147 1     
@<TRIPOS>SUBSTRUCTURE
      1 ****           1
@<TRIPOS>SET
DONOR_HYDROGENS      STATIC     ATOMS    <user>   **** ""
2 129 147
ATOM$RED        STATIC     ATOMS    COLORGROUP SYSTEM
2 129 147
