#       Name:                MYG
#       Creating user name   gbret
#       Creation time:       Fri Sep  9 12:44:40 2016


#       File generated by GOLD software.
#

@<TRIPOS>MOLECULE
MYG
    47    48     1
SMALL
NO_CHARGES


@<TRIPOS>ATOM
      1 N1          -1.1240   0.9916  -2.7978 N.4            1 <1>                0.0000
      2 H2          -1.0473  -0.0140  -2.7688 H              1 <1>                0.0000
      3 H3          -0.2016   1.3982  -2.8412 H              1 <1>                0.0000
      4 H4          -1.6509   1.2653  -3.6137 H              1 <1>                0.0000
      5 C5          -1.8116   1.4654  -1.5892 C.3            1 <1>                0.0000
      6 C6          -3.2808   1.0343  -1.6339 C.3            1 <1>                0.0000
      7 O7          -3.8903   1.5364  -2.8249 O.3            1 <1>                0.0000
      8 C8          -3.3529  -0.4958  -1.6273 C.3            1 <1>                0.0000
      9 O9          -2.7249  -1.0086  -2.8040 O.3            1 <1>                0.0000
     10 C10         -2.6288  -1.0277  -0.3877 C.3            1 <1>                0.0000
     11 C11         -2.6444  -2.5575  -0.4048 C.3            1 <1>                0.0000
     12 O12         -2.0723  -3.0533   0.8072 O.3            1 <1>                0.0000
     13 O13         -1.2768  -0.5648  -0.3922 O.3            1 <1>                0.0000
     14 C14         -1.1470   0.8578  -0.3511 C.3            1 <1>                0.0000
     15 O15          0.2379   1.2096  -0.3326 O.3            1 <1>                0.0000
     16 C16          0.9298   0.7847   0.8433 C.3            1 <1>                0.0000
     17 C17          1.5028  -0.6163   0.6197 C.3            1 <1>                0.0000
     18 O18          2.4106  -0.5891  -0.4835 O.3            1 <1>                0.0000
     19 C19          2.2436  -1.0712   1.8787 C.3            1 <1>                0.0000
     20 O20          2.7787  -2.3796   1.6699 O.3            1 <1>                0.0000
     21 C21          3.3835  -0.0961   2.1801 C.3            1 <1>                0.0000
     22 O22          4.2913  -0.0690   1.0768 O.3            1 <1>                0.0000
     23 C23          2.8106   1.3048   2.4036 C.3            1 <1>                0.0000
     24 O24          3.8752   2.2155   2.6851 O.3            1 <1>                0.0000
     25 C25          2.0697   1.7598   1.1446 C.3            1 <1>                0.0000
     26 O26          2.9775   1.7869   0.0414 O.3            1 <1>                0.0000
     27 H27         -1.7514   2.5525  -1.5384 H              1 <1>                0.0000
     28 H28         -3.8033   1.4290  -0.7625 H              1 <1>                0.0000
     29 H29         -4.8234   1.3006  -2.9186 H              1 <1>                0.0000
     30 H30         -4.3960  -0.8112  -1.6042 H              1 <1>                0.0000
     31 H31         -2.7338  -1.9736  -2.8659 H              1 <1>                0.0000
     32 H32         -3.1330  -0.6690   0.5097 H              1 <1>                0.0000
     33 H33         -3.6723  -2.9094  -0.4920 H              1 <1>                0.0000
     34 H34         -2.0639  -2.9173  -1.2544 H              1 <1>                0.0000
     35 H35         -2.0495  -4.0183   0.8654 H              1 <1>                0.0000
     36 H36         -1.6317   1.2412   0.5467 H              1 <1>                0.0000
     37 H37          0.2374   0.7640   1.6848 H              1 <1>                0.0000
     38 H38          0.6907  -1.3109   0.4050 H              1 <1>                0.0000
     39 H39          2.8129  -1.4456  -0.6830 H              1 <1>                0.0000
     40 H40          1.5512  -1.0919   2.7203 H              1 <1>                0.0000
     41 H41          3.2628  -2.7324   2.4291 H              1 <1>                0.0000
     42 H42          3.9113  -0.4202   3.0770 H              1 <1>                0.0000
     43 H43          5.0408   0.5297   1.1988 H              1 <1>                0.0000
     44 H44          2.1181   1.2842   3.2452 H              1 <1>                0.0000
     45 H45          4.3892   1.9886   3.4721 H              1 <1>                0.0000
     46 H46          1.6615   2.7578   1.3039 H              1 <1>                0.0000
     47 H47          3.7271   2.3855   0.1634 H              1 <1>                0.0000
@<TRIPOS>BOND
    1    1    2 1     
    2    1    3 1     
    3    1    4 1     
    4    1    5 1     
    5    5   14 1     
    6    5    6 1     
    7    5   27 1     
    8    6    7 1     
    9    6    8 1     
   10    6   28 1     
   11    7   29 1     
   12    8    9 1     
   13    8   10 1     
   14    8   30 1     
   15    9   31 1     
   16   10   11 1     
   17   10   13 1     
   18   10   32 1     
   19   11   12 1     
   20   11   33 1     
   21   11   34 1     
   22   12   35 1     
   23   13   14 1     
   24   14   15 1     
   25   14   36 1     
   26   15   16 1     
   27   16   25 1     
   28   16   17 1     
   29   16   37 1     
   30   17   18 1     
   31   17   19 1     
   32   17   38 1     
   33   18   39 1     
   34   19   20 1     
   35   19   21 1     
   36   19   40 1     
   37   20   41 1     
   38   21   22 1     
   39   21   23 1     
   40   21   42 1     
   41   22   43 1     
   42   23   24 1     
   43   23   25 1     
   44   23   44 1     
   45   24   45 1     
   46   25   26 1     
   47   25   46 1     
   48   26   47 1     
@<TRIPOS>SUBSTRUCTURE
      1 ****           1
@<TRIPOS>SET
DONOR_HYDROGENS      STATIC     ATOMS    <user>   **** ""
11 2 3 4 29 31 35 39 41 43 45 47
ATOM$RED        STATIC     ATOMS    COLORGROUP SYSTEM
11 2 3 4 29 31 35 39 41 43 45 47
