#       Name:                MYY
#       Creating user name   gbret
#       Creation time:       Fri Sep  9 12:45:34 2016


#       File generated by GOLD software.
#

@<TRIPOS>MOLECULE
MYY
   105   104     1
SMALL
NO_CHARGES


@<TRIPOS>ATOM
      1 C1          11.8803  14.6712   2.7870 C.3            1 <1>                0.0000
      2 C2          11.9011  13.1413   2.7786 C.3            1 <1>                0.0000
      3 C3          10.4657  12.6118   2.7895 C.3            1 <1>                0.0000
      4 C4          10.4864  11.0819   2.7811 C.3            1 <1>                0.0000
      5 C5           9.0511  10.5523   2.7919 C.3            1 <1>                0.0000
      6 C6           9.0718   9.0225   2.7835 C.3            1 <1>                0.0000
      7 C7           7.6364   8.4929   2.7944 C.3            1 <1>                0.0000
      8 C8           7.6572   6.9631   2.7860 C.3            1 <1>                0.0000
      9 C9           6.2218   6.4335   2.7968 C.3            1 <1>                0.0000
     10 C10          6.2425   4.9037   2.7884 C.3            1 <1>                0.0000
     11 C11          4.8072   4.3741   2.7993 C.3            1 <1>                0.0000
     12 C12          4.8279   2.8442   2.7909 C.3            1 <1>                0.0000
     13 C13          3.3925   2.3147   2.8017 C.3            1 <1>                0.0000
     14 C14          3.4133   0.7848   2.7933 C.3            1 <1>                0.0000
     15 C15          1.9779   0.2552   2.8042 C.3            1 <1>                0.0000
     16 C16          1.9983  -1.2516   2.7959 C.2            1 <1>                0.0000
     17 O17          3.0527  -1.8414   2.7826 O.2            1 <1>                0.0000
     18 O18          0.8451  -1.9385   2.8032 O.3            1 <1>                0.0000
     19 C19          0.9408  -3.3873   2.7945 C.3            1 <1>                0.0000
     20 C20         -0.4649  -3.9913   2.8047 C.3            1 <1>                0.0000
     21 C21         -1.2488  -3.4388   3.9968 C.3            1 <1>                0.0000
     22 O22         -1.2426  -2.0106   3.9503 O.3            1 <1>                0.0000
     23 P23         -1.9746  -1.0941   5.0532 P.3            1 <1>                0.0000
     24 O24         -1.2771  -1.2911   6.4422 O.co2          1 <1>                0.0000
     25 O25         -1.8779   0.4110   4.6291 O.co2          1 <1>                0.0000
     26 O26         -3.4811  -1.5104   5.1616 O.co2          1 <1>                0.0000
     27 O27         -1.1498  -3.6441   1.5723 O.3            1 <1>                0.0000
     28 C28         -2.0624  -4.5163   1.1158 C.2            1 <1>                0.0000
     29 O29         -2.2816  -5.5360   1.7257 O.2            1 <1>                0.0000
     30 C30         -2.8134  -4.2236  -0.1575 C.3            1 <1>                0.0000
     31 C31         -3.7849  -5.3685  -0.4512 C.3            1 <1>                0.0000
     32 C32         -4.5475  -5.0713  -1.7440 C.3            1 <1>                0.0000
     33 C33         -5.5189  -6.2162  -2.0377 C.3            1 <1>                0.0000
     34 C34         -6.2815  -5.9191  -3.3304 C.3            1 <1>                0.0000
     35 C35         -7.2530  -7.0640  -3.6242 C.3            1 <1>                0.0000
     36 C36         -8.0155  -6.7668  -4.9169 C.3            1 <1>                0.0000
     37 C37         -8.9870  -7.9118  -5.2106 C.3            1 <1>                0.0000
     38 C38         -9.7495  -7.6146  -6.5034 C.3            1 <1>                0.0000
     39 C39        -10.7210  -8.7595  -6.7971 C.3            1 <1>                0.0000
     40 C40        -11.4835  -8.4624  -8.0898 C.3            1 <1>                0.0000
     41 C41        -12.4550  -9.6073  -8.3836 C.3            1 <1>                0.0000
     42 C42        -13.2176  -9.3101  -9.6763 C.3            1 <1>                0.0000
     43 H43         12.9029  15.0485   2.7793 H              1 <1>                0.0000
     44 H44         11.3531  15.0322   1.9040 H              1 <1>                0.0000
     45 H45         11.3701  15.0227   3.6838 H              1 <1>                0.0000
     46 H46         12.4113  12.7898   1.8818 H              1 <1>                0.0000
     47 H47         12.4283  12.7803   3.6617 H              1 <1>                0.0000
     48 H48          9.9555  12.9633   3.6863 H              1 <1>                0.0000
     49 H49          9.9385  12.9728   1.9064 H              1 <1>                0.0000
     50 H50         10.9966  10.7304   1.8843 H              1 <1>                0.0000
     51 H51         11.0136  10.7208   3.6641 H              1 <1>                0.0000
     52 H52          8.5409  10.9039   3.6887 H              1 <1>                0.0000
     53 H53          8.5239  10.9134   1.9089 H              1 <1>                0.0000
     54 H54          9.5820   8.6710   1.8867 H              1 <1>                0.0000
     55 H55          9.5990   8.6614   3.6666 H              1 <1>                0.0000
     56 H56          7.1262   8.8444   3.6912 H              1 <1>                0.0000
     57 H57          7.1092   8.8540   1.9113 H              1 <1>                0.0000
     58 H58          8.1674   6.6116   1.8892 H              1 <1>                0.0000
     59 H59          8.1844   6.6020   3.6690 H              1 <1>                0.0000
     60 H60          5.7116   6.7850   3.6936 H              1 <1>                0.0000
     61 H61          5.6946   6.7946   1.9138 H              1 <1>                0.0000
     62 H62          6.7527   4.5521   1.8916 H              1 <1>                0.0000
     63 H63          6.7697   4.5426   3.6715 H              1 <1>                0.0000
     64 H64          4.2970   4.7256   3.6961 H              1 <1>                0.0000
     65 H65          4.2800   4.7352   1.9162 H              1 <1>                0.0000
     66 H66          5.3381   2.4927   1.8941 H              1 <1>                0.0000
     67 H67          5.3551   2.4832   3.6739 H              1 <1>                0.0000
     68 H68          2.8823   2.6662   3.6985 H              1 <1>                0.0000
     69 H69          2.8653   2.6757   1.9187 H              1 <1>                0.0000
     70 H70          3.9235   0.4333   1.8965 H              1 <1>                0.0000
     71 H71          3.9404   0.4237   3.6764 H              1 <1>                0.0000
     72 H72          1.4677   0.6068   3.7010 H              1 <1>                0.0000
     73 H73          1.4507   0.6163   1.9211 H              1 <1>                0.0000
     74 H74          1.4689  -3.7112   1.8977 H              1 <1>                0.0000
     75 H75          1.4859  -3.7208   3.6775 H              1 <1>                0.0000
     76 H76         -0.3938  -5.0758   2.8878 H              1 <1>                0.0000
     77 H77         -2.2766  -3.7992   3.9544 H              1 <1>                0.0000
     78 H78         -0.7841  -3.7741   4.9241 H              1 <1>                0.0000
     79 H79         -3.3710  -3.2938  -0.0449 H              1 <1>                0.0000
     80 H80         -2.1070  -4.1260  -0.9818 H              1 <1>                0.0000
     81 H81         -3.2273  -6.2983  -0.5639 H              1 <1>                0.0000
     82 H82         -4.4914  -5.4661   0.3731 H              1 <1>                0.0000
     83 H83         -5.1051  -4.1415  -1.6314 H              1 <1>                0.0000
     84 H84         -3.8410  -4.9738  -2.5683 H              1 <1>                0.0000
     85 H85         -4.9613  -7.1460  -2.1503 H              1 <1>                0.0000
     86 H86         -6.2254  -6.3138  -1.2134 H              1 <1>                0.0000
     87 H87         -6.8391  -4.9893  -3.2178 H              1 <1>                0.0000
     88 H88         -5.5750  -5.8215  -4.1548 H              1 <1>                0.0000
     89 H89         -6.6954  -7.9938  -3.7368 H              1 <1>                0.0000
     90 H90         -7.9594  -7.1616  -2.7999 H              1 <1>                0.0000
     91 H91         -8.5731  -5.8371  -4.8043 H              1 <1>                0.0000
     92 H92         -7.3090  -6.6693  -5.7412 H              1 <1>                0.0000
     93 H93         -8.4294  -8.8415  -5.3233 H              1 <1>                0.0000
     94 H94         -9.6934  -8.0093  -4.3863 H              1 <1>                0.0000
     95 H95        -10.3071  -6.6848  -6.3908 H              1 <1>                0.0000
     96 H96         -9.0430  -7.5170  -7.3277 H              1 <1>                0.0000
     97 H97        -10.1634  -9.6893  -6.9097 H              1 <1>                0.0000
     98 H98        -11.4275  -8.8571  -5.9728 H              1 <1>                0.0000
     99 H99        -12.0411  -7.5326  -7.9772 H              1 <1>                0.0000
    100 H100       -10.7771  -8.3648  -8.9142 H              1 <1>                0.0000
    101 H101       -11.8974 -10.5371  -8.4962 H              1 <1>                0.0000
    102 H102       -13.1615  -9.7048  -7.5593 H              1 <1>                0.0000
    103 H103       -13.9097 -10.1258  -9.8856 H              1 <1>                0.0000
    104 H104       -13.7752  -8.3803  -9.5637 H              1 <1>                0.0000
    105 H105       -12.5111  -9.2126 -10.5006 H              1 <1>                0.0000
@<TRIPOS>BOND
    1    1    2 1     
    2    1   43 1     
    3    1   44 1     
    4    1   45 1     
    5    2    3 1     
    6    2   46 1     
    7    2   47 1     
    8    3    4 1     
    9    3   48 1     
   10    3   49 1     
   11    4    5 1     
   12    4   50 1     
   13    4   51 1     
   14    5    6 1     
   15    5   52 1     
   16    5   53 1     
   17    6    7 1     
   18    6   54 1     
   19    6   55 1     
   20    7    8 1     
   21    7   56 1     
   22    7   57 1     
   23    8    9 1     
   24    8   58 1     
   25    8   59 1     
   26    9   10 1     
   27    9   60 1     
   28    9   61 1     
   29   10   11 1     
   30   10   62 1     
   31   10   63 1     
   32   11   12 1     
   33   11   64 1     
   34   11   65 1     
   35   12   13 1     
   36   12   66 1     
   37   12   67 1     
   38   13   14 1     
   39   13   68 1     
   40   13   69 1     
   41   14   15 1     
   42   14   70 1     
   43   14   71 1     
   44   15   16 1     
   45   15   72 1     
   46   15   73 1     
   47   16   17 2     
   48   16   18 1     
   49   18   19 1     
   50   19   20 1     
   51   19   74 1     
   52   19   75 1     
   53   20   21 1     
   54   20   27 1     
   55   20   76 1     
   56   21   22 1     
   57   21   77 1     
   58   21   78 1     
   59   22   23 1     
   60   23   24 ar    
   61   23   25 ar    
   62   23   26 ar    
   63   27   28 1     
   64   28   29 2     
   65   28   30 1     
   66   30   31 1     
   67   30   79 1     
   68   30   80 1     
   69   31   32 1     
   70   31   81 1     
   71   31   82 1     
   72   32   33 1     
   73   32   83 1     
   74   32   84 1     
   75   33   34 1     
   76   33   85 1     
   77   33   86 1     
   78   34   35 1     
   79   34   87 1     
   80   34   88 1     
   81   35   36 1     
   82   35   89 1     
   83   35   90 1     
   84   36   37 1     
   85   36   91 1     
   86   36   92 1     
   87   37   38 1     
   88   37   93 1     
   89   37   94 1     
   90   38   39 1     
   91   38   95 1     
   92   38   96 1     
   93   39   40 1     
   94   39   97 1     
   95   39   98 1     
   96   40   41 1     
   97   40   99 1     
   98   40  100 1     
   99   41   42 1     
  100   41  101 1     
  101   41  102 1     
  102   42  103 1     
  103   42  104 1     
  104   42  105 1     
@<TRIPOS>SUBSTRUCTURE
      1 ****           1
