#       Name:                N2T
#       Creating user name   gbret
#       Creation time:       Fri Sep  9 12:49:52 2016


#       File generated by GOLD software.
#

@<TRIPOS>MOLECULE
N2T
    55    58     1
SMALL
NO_CHARGES


@<TRIPOS>ATOM
      1 C1          -0.5094   1.1203   1.6555 C.3            1 <1>                0.0000
      2 N2          -0.4735  -0.3443   1.6466 N.am           1 <1>                0.0000
      3 C3          -0.3320  -1.0812   2.9048 C.3            1 <1>                0.0000
      4 C4           0.9761  -0.6768   3.5908 C.3            1 <1>                0.0000
      5 C5           1.0793  -1.3898   4.9408 C.3            1 <1>                0.0000
      6 N6          -0.0573  -1.0086   5.7877 N.4            1 <1>                0.0000
      7 H7           0.0420  -1.4380   6.6953 H              1 <1>                0.0000
      8 H8          -0.0761  -0.0051   5.8918 H              1 <1>                0.0000
      9 C9          -1.3111  -1.4571   5.1702 C.3            1 <1>                0.0000
     10 C10         -1.5063  -0.7467   3.8291 C.3            1 <1>                0.0000
     11 C11         -0.5706  -1.0136   0.4808 C.2            1 <1>                0.0000
     12 O12         -0.6398  -2.2275   0.4807 O.2            1 <1>                0.0000
     13 N13         -0.5910  -0.3374  -0.6849 N.am           1 <1>                0.0000
     14 C14         -0.4029   1.1073  -0.8749 C.3            1 <1>                0.0000
     15 C15         -0.5115   1.3814  -2.3517 C.2            1 <1>                0.0000
     16 C16         -0.7382   0.2544  -3.0015 C.2            1 <1>                0.0000
     17 C17         -0.7997  -0.8935  -2.0287 C.3            1 <1>                0.0000
     18 C18          0.2785  -1.8961  -2.3500 C.ar           1 <1>                0.0000
     19 C19          1.5829  -1.6573  -1.9596 C.ar           1 <1>                0.0000
     20 C20          2.5720  -2.5770  -2.2543 C.ar           1 <1>                0.0000
     21 C21          2.2565  -3.7357  -2.9390 C.ar           1 <1>                0.0000
     22 C22          0.9520  -3.9749  -3.3285 C.ar           1 <1>                0.0000
     23 C23         -0.0378  -3.0573  -3.0301 C.ar           1 <1>                0.0000
     24 C24         -0.3834   2.7129  -2.9799 C.ar           1 <1>                0.0000
     25 C25         -1.4219   3.6390  -2.8769 C.ar           1 <1>                0.0000
     26 C26         -1.2957   4.8822  -3.4661 C.ar           1 <1>                0.0000
     27 F27         -2.3002   5.7802  -3.3668 F              1 <1>                0.0000
     28 C28         -0.1408   5.2103  -4.1583 C.ar           1 <1>                0.0000
     29 C29          0.8919   4.2972  -4.2641 C.ar           1 <1>                0.0000
     30 C30          0.7804   3.0518  -3.6747 C.ar           1 <1>                0.0000
     31 F31          1.7906   2.1608  -3.7786 F              1 <1>                0.0000
     32 H32          0.3424   1.5080   1.0968 H              1 <1>                0.0000
     33 H33         -1.4345   1.4638   1.1925 H              1 <1>                0.0000
     34 H34         -0.4630   1.4785   2.6839 H              1 <1>                0.0000
     35 H35         -0.3221  -2.1520   2.7009 H              1 <1>                0.0000
     36 H36          1.8199  -0.9626   2.9628 H              1 <1>                0.0000
     37 H37          0.9868   0.4018   3.7471 H              1 <1>                0.0000
     38 H38          1.0689  -2.4683   4.7833 H              1 <1>                0.0000
     39 H39          2.0096  -1.1043   5.4318 H              1 <1>                0.0000
     40 H40         -1.2706  -2.5342   5.0078 H              1 <1>                0.0000
     41 H41         -2.1455  -1.2213   5.8306 H              1 <1>                0.0000
     42 H42         -1.5471   0.3305   3.9903 H              1 <1>                0.0000
     43 H43         -2.4368  -1.0825   3.3714 H              1 <1>                0.0000
     44 H44         -1.1769   1.6558  -0.3381 H              1 <1>                0.0000
     45 H45          0.5822   1.4035  -0.5143 H              1 <1>                0.0000
     46 H46         -0.8577   0.1682  -4.0714 H              1 <1>                0.0000
     47 H47         -1.7788  -1.3699  -2.0788 H              1 <1>                0.0000
     48 H48          1.8293  -0.7520  -1.4247 H              1 <1>                0.0000
     49 H49          3.5912  -2.3900  -1.9500 H              1 <1>                0.0000
     50 H50          3.0294  -4.4539  -3.1699 H              1 <1>                0.0000
     51 H51          0.7056  -4.8801  -3.8637 H              1 <1>                0.0000
     52 H52         -1.0571  -3.2442  -3.3344 H              1 <1>                0.0000
     53 H53         -2.3226   3.3844  -2.3380 H              1 <1>                0.0000
     54 H54         -0.0473   6.1834  -4.6174 H              1 <1>                0.0000
     55 H55          1.7893   4.5590  -4.8049 H              1 <1>                0.0000
@<TRIPOS>BOND
    1    1    2 1     
    2    1   32 1     
    3    1   33 1     
    4    1   34 1     
    5    2    3 1     
    6    2   11 am    
    7    3   10 1     
    8    3    4 1     
    9    3   35 1     
   10    4    5 1     
   11    4   36 1     
   12    4   37 1     
   13    5    6 1     
   14    5   38 1     
   15    5   39 1     
   16    6    7 1     
   17    6    8 1     
   18    6    9 1     
   19    9   10 1     
   20    9   40 1     
   21    9   41 1     
   22   10   42 1     
   23   10   43 1     
   24   11   12 2     
   25   11   13 am    
   26   13   17 1     
   27   13   14 1     
   28   14   15 1     
   29   14   44 1     
   30   14   45 1     
   31   15   16 2     
   32   15   24 1     
   33   16   17 1     
   34   16   46 1     
   35   17   18 1     
   36   17   47 1     
   37   18   23 ar    
   38   18   19 ar    
   39   19   20 ar    
   40   19   48 1     
   41   20   21 ar    
   42   20   49 1     
   43   21   22 ar    
   44   21   50 1     
   45   22   23 ar    
   46   22   51 1     
   47   23   52 1     
   48   24   30 ar    
   49   24   25 ar    
   50   25   26 ar    
   51   25   53 1     
   52   26   27 1     
   53   26   28 ar    
   54   28   29 ar    
   55   28   54 1     
   56   29   30 ar    
   57   29   55 1     
   58   30   31 1     
@<TRIPOS>SUBSTRUCTURE
      1 ****           1
@<TRIPOS>SET
DONOR_HYDROGENS      STATIC     ATOMS    <user>   **** ""
2 7 8
ATOM$RED        STATIC     ATOMS    COLORGROUP SYSTEM
2 7 8
