#       Name:                NA9
#       Creating user name   gbret
#       Creation time:       Fri Sep  9 12:55:57 2016


#       File generated by GOLD software.
#

@<TRIPOS>MOLECULE
NA9
    67    68     1
SMALL
NO_CHARGES


@<TRIPOS>ATOM
      1 C1           0.6685   2.6938   0.6018 C.3            1 <1>                0.0000
      2 C2           0.6893   1.1639   0.5934 C.3            1 <1>                0.0000
      3 N3          -0.6851   0.6568   0.6038 N.am           1 <1>                0.0000
      4 C4          -1.6024   1.0043  -0.4844 C.3            1 <1>                0.0000
      5 C5          -1.1057  -0.1293   1.6145 C.2            1 <1>                0.0000
      6 O6          -0.3464  -0.4170   2.5154 O.2            1 <1>                0.0000
      7 C7          -2.5195  -0.6510   1.6252 C.3            1 <1>                0.0000
      8 C8          -2.6244  -1.8592   0.6924 C.3            1 <1>                0.0000
      9 C9          -4.0834  -2.3120   0.6064 C.3            1 <1>                0.0000
     10 C10         -4.9195  -1.2153  -0.0562 C.3            1 <1>                0.0000
     11 C11         -6.3784  -1.6681  -0.1422 C.3            1 <1>                0.0000
     12 C12         -6.4666  -2.9493  -0.9738 C.3            1 <1>                0.0000
     13 C13         -5.6305  -4.0460  -0.3112 C.3            1 <1>                0.0000
     14 C14         -4.1716  -3.5932  -0.2252 C.3            1 <1>                0.0000
     15 N15         -2.8827  -1.0534   2.9905 N.4            1 <1>                0.0000
     16 H16         -3.7979  -1.4782   2.9838 H              1 <1>                0.0000
     17 H17         -2.2062  -1.7173   3.3366 H              1 <1>                0.0000
     18 C18         -2.8981   0.1292   3.8618 C.3            1 <1>                0.0000
     19 C19         -3.2707  -0.2837   5.2625 C.2            1 <1>                0.0000
     20 O20         -3.5018  -1.4545   5.5118 O.co2          1 <1>                0.0000
     21 O21         -3.3409   0.5532   6.1464 O.co2          1 <1>                0.0000
     22 C22          1.3946   0.6779  -0.6465 C.2            1 <1>                0.0000
     23 O23          0.8072  -0.0230  -1.4430 O.2            1 <1>                0.0000
     24 N24          2.6784   1.0222  -0.8702 N.am           1 <1>                0.0000
     25 C25          3.3641   0.5497  -2.0755 C.3            1 <1>                0.0000
     26 C26          4.7779   1.0714  -2.0862 C.ar           1 <1>                0.0000
     27 C27          5.0693   2.2918  -2.6758 C.ar           1 <1>                0.0000
     28 C28          6.3823   2.7349  -2.6640 C.ar           1 <1>                0.0000
     29 C29          7.3581   1.9431  -2.0635 C.ar           1 <1>                0.0000
     30 N30          7.0372   0.7805  -1.5104 N.ar           1 <1>                0.0000
     31 C31          5.7981   0.3388  -1.5020 C.ar           1 <1>                0.0000
     32 C32          8.7674   2.4030  -2.0425 C.2            1 <1>                0.0000
     33 N33          9.0954   3.5675  -2.5957 N.pl3          1 <1>                0.0000
     34 N34          9.7040   1.6511  -1.4704 N.pl3          1 <1>                0.0000
     35 H35          9.4649   0.8020  -1.0670 H              1 <1>                0.0000
     36 H36         10.6261   1.9520  -1.4567 H              1 <1>                0.0000
     37 H37          1.6911   3.0711   0.5941 H              1 <1>                0.0000
     38 H38          0.1413   3.0548  -0.2812 H              1 <1>                0.0000
     39 H39          0.1583   3.0453   1.4986 H              1 <1>                0.0000
     40 H40          1.2165   0.8029   1.4765 H              1 <1>                0.0000
     41 H41         -1.5267   0.2583  -1.2755 H              1 <1>                0.0000
     42 H42         -2.6238   1.0290  -0.1047 H              1 <1>                0.0000
     43 H43         -1.3390   1.9842  -0.8826 H              1 <1>                0.0000
     44 H44         -3.1979   0.1311   1.2844 H              1 <1>                0.0000
     45 H45         -2.2705  -1.5832  -0.3009 H              1 <1>                0.0000
     46 H46         -2.0137  -2.6734   1.0825 H              1 <1>                0.0000
     47 H47         -4.4642  -2.5031   1.6097 H              1 <1>                0.0000
     48 H48         -4.8566  -0.3025   0.5363 H              1 <1>                0.0000
     49 H49         -4.5386  -1.0242  -1.0594 H              1 <1>                0.0000
     50 H50         -6.7593  -1.8591   0.8611 H              1 <1>                0.0000
     51 H51         -6.9741  -0.8868  -0.6142 H              1 <1>                0.0000
     52 H52         -7.5060  -3.2718  -1.0351 H              1 <1>                0.0000
     53 H53         -6.0858  -2.7582  -1.9771 H              1 <1>                0.0000
     54 H54         -6.0114  -4.2371   0.6921 H              1 <1>                0.0000
     55 H55         -5.6934  -4.9587  -0.9036 H              1 <1>                0.0000
     56 H56         -3.7907  -3.4021  -1.2284 H              1 <1>                0.0000
     57 H57         -3.5759  -4.3745   0.2469 H              1 <1>                0.0000
     58 H58         -1.9095   0.5881   3.8691 H              1 <1>                0.0000
     59 H59         -3.6288   0.8464   3.4880 H              1 <1>                0.0000
     60 H60          3.1482   1.5828  -0.2331 H              1 <1>                0.0000
     61 H61          3.3788  -0.5401  -2.0815 H              1 <1>                0.0000
     62 H62          2.8369   0.9108  -2.9585 H              1 <1>                0.0000
     63 H63          4.2908   2.8836  -3.1342 H              1 <1>                0.0000
     64 H64          6.6452   3.6806  -3.1143 H              1 <1>                0.0000
     65 H65          5.5748  -0.6125  -1.0420 H              1 <1>                0.0000
     66 H66          8.4125   4.1157  -3.0129 H              1 <1>                0.0000
     67 H67         10.0175   3.8684  -2.5820 H              1 <1>                0.0000
@<TRIPOS>BOND
    1    1    2 1     
    2    1   37 1     
    3    1   38 1     
    4    1   39 1     
    5    2    3 1     
    6    2   22 1     
    7    2   40 1     
    8    3    4 1     
    9    3    5 am    
   10    4   41 1     
   11    4   42 1     
   12    4   43 1     
   13    5    6 2     
   14    5    7 1     
   15    7    8 1     
   16    7   15 1     
   17    7   44 1     
   18    8    9 1     
   19    8   45 1     
   20    8   46 1     
   21    9   14 1     
   22    9   10 1     
   23    9   47 1     
   24   10   11 1     
   25   10   48 1     
   26   10   49 1     
   27   11   12 1     
   28   11   50 1     
   29   11   51 1     
   30   12   13 1     
   31   12   52 1     
   32   12   53 1     
   33   13   14 1     
   34   13   54 1     
   35   13   55 1     
   36   14   56 1     
   37   14   57 1     
   38   15   16 1     
   39   15   17 1     
   40   15   18 1     
   41   18   19 1     
   42   18   58 1     
   43   18   59 1     
   44   19   20 ar    
   45   19   21 ar    
   46   22   23 2     
   47   22   24 am    
   48   24   25 1     
   49   24   60 1     
   50   25   26 1     
   51   25   61 1     
   52   25   62 1     
   53   26   31 ar    
   54   26   27 ar    
   55   27   28 ar    
   56   27   63 1     
   57   28   29 ar    
   58   28   64 1     
   59   29   30 ar    
   60   29   32 1     
   61   30   31 ar    
   62   31   65 1     
   63   32   33 2     
   64   32   34 1     
   65   33   66 1     
   66   33   67 1     
   67   34   35 1     
   68   34   36 1     
@<TRIPOS>SUBSTRUCTURE
      1 ****           1
@<TRIPOS>SET
DONOR_HYDROGENS      STATIC     ATOMS    <user>   **** ""
7 16 17 60 66 67 35 36
ATOM$RED        STATIC     ATOMS    COLORGROUP SYSTEM
7 16 17 60 66 67 35 36
