#       Name:                NAR
#       Creating user name   gbret
#       Creation time:       Fri Sep  9 12:57:14 2016


#       File generated by GOLD software.
#

@<TRIPOS>MOLECULE
NAR
    31    33     1
SMALL
NO_CHARGES


@<TRIPOS>ATOM
      1 O1           0.0980   5.8177  -0.6907 O.3            1 <1>                0.0000
      2 C2           0.1165   4.4588  -0.6982 C.ar           1 <1>                0.0000
      3 C3           0.1202   3.7706  -1.9028 C.ar           1 <1>                0.0000
      4 C4           0.1395   2.3893  -1.9077 C.ar           1 <1>                0.0000
      5 C5           0.1545   1.6927  -0.7134 C.ar           1 <1>                0.0000
      6 C6           0.1503   2.3763   0.4884 C.ar           1 <1>                0.0000
      7 C7           0.1374   3.7576   0.4987 C.ar           1 <1>                0.0000
      8 C8           0.1750   0.1859  -0.7217 C.3            1 <1>                0.0000
      9 C9           1.6080  -0.3086  -0.4762 C.3            1 <1>                0.0000
     10 C10          1.5631  -1.8260  -0.4602 C.2            1 <1>                0.0000
     11 O11          2.4316  -2.4954  -0.9806 O.2            1 <1>                0.0000
     12 C12          0.4165  -2.4417   0.2168 C.ar           1 <1>                0.0000
     13 C13          0.4095  -3.8150   0.5081 C.ar           1 <1>                0.0000
     14 O14          1.4725  -4.5891   0.1764 O.co2          1 <1>                0.0000
     15 C15         -0.6894  -4.3727   1.1364 C.ar           1 <1>                0.0000
     16 C16         -1.7755  -3.5754   1.4770 C.ar           1 <1>                0.0000
     17 O17         -2.8503  -4.1314   2.0904 O.3            1 <1>                0.0000
     18 C18         -1.7717  -2.2151   1.1965 C.ar           1 <1>                0.0000
     19 C19         -0.6818  -1.6364   0.5705 C.ar           1 <1>                0.0000
     20 O20         -0.6786  -0.3078   0.3105 O.3            1 <1>                0.0000
     21 H21          0.9760   6.2230  -0.6969 H              1 <1>                0.0000
     22 H22          0.1078   4.3143  -2.8359 H              1 <1>                0.0000
     23 H23          0.1424   1.8531  -2.8451 H              1 <1>                0.0000
     24 H24          0.1617   1.8299   1.4200 H              1 <1>                0.0000
     25 H25          0.1341   4.2911   1.4377 H              1 <1>                0.0000
     26 H26         -0.1751  -0.1774  -1.6880 H              1 <1>                0.0000
     27 H27          2.2616   0.0350  -1.2780 H              1 <1>                0.0000
     28 H28          1.9693   0.0622   0.4830 H              1 <1>                0.0000
     29 H29         -0.7036  -5.4287   1.3621 H              1 <1>                0.0000
     30 H30         -2.7961  -4.1309   3.0558 H              1 <1>                0.0000
     31 H31         -2.6223  -1.6073   1.4675 H              1 <1>                0.0000
@<TRIPOS>BOND
    1    1    2 1     
    2    1   21 1     
    3    2    7 ar    
    4    2    3 ar    
    5    3    4 ar    
    6    3   22 1     
    7    4    5 ar    
    8    4   23 1     
    9    5    6 ar    
   10    5    8 1     
   11    6    7 ar    
   12    6   24 1     
   13    7   25 1     
   14    8   20 1     
   15    8    9 1     
   16    8   26 1     
   17    9   10 1     
   18    9   27 1     
   19    9   28 1     
   20   10   11 2     
   21   10   12 1     
   22   12   19 ar    
   23   12   13 ar    
   24   13   14 ar    
   25   13   15 ar    
   26   15   16 ar    
   27   15   29 1     
   28   16   17 1     
   29   16   18 ar    
   30   17   30 1     
   31   18   19 ar    
   32   18   31 1     
   33   19   20 1     
@<TRIPOS>SUBSTRUCTURE
      1 ****           1
@<TRIPOS>SET
DONOR_HYDROGENS      STATIC     ATOMS    <user>   **** ""
2 21 30
ATOM$RED        STATIC     ATOMS    COLORGROUP SYSTEM
2 21 30
