#       Name:                NBO
#       Creating user name   gbret
#       Creation time:       Fri Sep  9 12:58:40 2016


#       File generated by GOLD software.
#

@<TRIPOS>MOLECULE
NBO
    33    34     1
SMALL
NO_CHARGES


@<TRIPOS>ATOM
      1 C1          -2.6486   4.1387   3.4992 C.3            1 <1>                0.0000
      2 O2          -2.6292   2.7098   3.4913 O.3            1 <1>                0.0000
      3 C3          -2.0256   2.1069   2.4337 C.ar           1 <1>                0.0000
      4 C4          -1.4571   2.8907   1.4246 C.ar           1 <1>                0.0000
      5 C5          -0.8462   2.3165   0.3540 C.ar           1 <1>                0.0000
      6 C6          -0.7824   0.9155   0.2562 C.ar           1 <1>                0.0000
      7 C7          -0.1583   0.2892  -0.8360 C.ar           1 <1>                0.0000
      8 C8          -0.1143  -1.0697  -0.8985 C.ar           1 <1>                0.0000
      9 C9           0.5564  -1.7374  -2.0713 C.3            1 <1>                0.0000
     10 C10          2.0375  -1.9555  -1.7555 C.3            1 <1>                0.0000
     11 C11          2.7082  -2.6232  -2.9283 C.2            1 <1>                0.0000
     12 C12          4.1782  -2.9499  -2.8698 C.3            1 <1>                0.0000
     13 O13          2.0677  -2.8963  -3.9149 O.2            1 <1>                0.0000
     14 C14         -0.6797  -1.8531   0.1060 C.ar           1 <1>                0.0000
     15 C15         -1.2923  -1.2818   1.1786 C.ar           1 <1>                0.0000
     16 C16         -1.3575   0.1189   1.2779 C.ar           1 <1>                0.0000
     17 C17         -1.9770   0.7434   2.3729 C.ar           1 <1>                0.0000
     18 H18         -1.6260   4.5160   3.4914 H              1 <1>                0.0000
     19 H19         -3.1758   4.4998   2.6161 H              1 <1>                0.0000
     20 H20         -3.1588   4.4902   4.3960 H              1 <1>                0.0000
     21 H21         -1.5043   3.9673   1.4965 H              1 <1>                0.0000
     22 H22         -0.4121   2.9342  -0.4183 H              1 <1>                0.0000
     23 H23          0.2839   0.8832  -1.6221 H              1 <1>                0.0000
     24 H24          0.0803  -2.6990  -2.2630 H              1 <1>                0.0000
     25 H25          0.4625  -1.1033  -2.9529 H              1 <1>                0.0000
     26 H26          2.5136  -0.9939  -1.5638 H              1 <1>                0.0000
     27 H27          2.1315  -2.5896  -0.8739 H              1 <1>                0.0000
     28 H28          4.5832  -2.6316  -1.9092 H              1 <1>                0.0000
     29 H29          4.3162  -4.0251  -2.9840 H              1 <1>                0.0000
     30 H30          4.6983  -2.4294  -3.6739 H              1 <1>                0.0000
     31 H31         -0.6314  -2.9295   0.0320 H              1 <1>                0.0000
     32 H32         -1.7265  -1.9014   1.9493 H              1 <1>                0.0000
     33 H33         -2.4156   0.1486   3.1605 H              1 <1>                0.0000
@<TRIPOS>BOND
    1    1    2 1     
    2    1   18 1     
    3    1   19 1     
    4    1   20 1     
    5    2    3 1     
    6    3   17 ar    
    7    3    4 ar    
    8    4    5 ar    
    9    4   21 1     
   10    5    6 ar    
   11    5   22 1     
   12    6   16 ar    
   13    6    7 ar    
   14    7    8 ar    
   15    7   23 1     
   16    8    9 1     
   17    8   14 ar    
   18    9   10 1     
   19    9   24 1     
   20    9   25 1     
   21   10   11 1     
   22   10   26 1     
   23   10   27 1     
   24   11   12 1     
   25   11   13 2     
   26   12   28 1     
   27   12   29 1     
   28   12   30 1     
   29   14   15 ar    
   30   14   31 1     
   31   15   16 ar    
   32   15   32 1     
   33   16   17 ar    
   34   17   33 1     
@<TRIPOS>SUBSTRUCTURE
      1 ****           1
