#       Name:                NCC
#       Creating user name   gbret
#       Creation time:       Fri Sep  9 13:00:08 2016


#       File generated by GOLD software.
#

@<TRIPOS>MOLECULE
NCC
    70    72     1
SMALL
NO_CHARGES


@<TRIPOS>ATOM
      1 C1           5.4991   2.7561  -1.8055 C.3            1 <1>                0.0000
      2 C2           5.5412   1.2509  -1.8640 C.2            1 <1>                0.0000
      3 O3           6.6079   0.6751  -1.9031 O.2            1 <1>                0.0000
      4 N4           4.3934   0.5444  -1.8728 N.am           1 <1>                0.0000
      5 C5           4.4344  -0.9189  -1.9296 C.3            1 <1>                0.0000
      6 C6           4.5895  -1.4820  -0.5136 C.3            1 <1>                0.0000
      7 O7           5.7653  -0.9394   0.0905 O.3            1 <1>                0.0000
      8 C8           3.3615  -1.0938   0.3158 C.3            1 <1>                0.0000
      9 C9           2.1005  -1.6120  -0.3806 C.3            1 <1>                0.0000
     10 O10          0.9469  -1.2053   0.3581 O.3            1 <1>                0.0000
     11 P11          0.6063   0.3363   0.6738 P.3            1 <1>                0.0000
     12 O12          1.6758   0.9153   1.6267 O.co2          1 <1>                0.0000
     13 O13          0.6001   1.1426  -0.6441 O.co2          1 <1>                0.0000
     14 O14         -0.8422   0.4343   1.3697 O.3            1 <1>                0.0000
     15 C15         -1.4750   1.6779   1.6780 C.3            1 <1>                0.0000
     16 C16         -2.8335   1.4112   2.3294 C.3            1 <1>                0.0000
     17 O17         -2.6569   0.8553   3.6507 O.3            1 <1>                0.0000
     18 C18         -3.9020   1.1059   4.3384 C.3            1 <1>                0.0000
     19 C19         -4.3095   2.5329   3.9095 C.3            1 <1>                0.0000
     20 O20         -3.8577   3.4919   4.8678 O.3            1 <1>                0.0000
     21 C21         -3.5903   2.7384   2.5575 C.3            1 <1>                0.0000
     22 O22         -2.6725   3.8305   2.6395 O.3            1 <1>                0.0000
     23 N23         -4.9192   0.1378   3.9206 N.am           1 <1>                0.0000
     24 C24         -4.5977  -0.8406   3.0283 C.2            1 <1>                0.0000
     25 C25         -5.5464  -1.7298   2.6503 C.2            1 <1>                0.0000
     26 C26         -6.8431  -1.6170   3.1925 C.2            1 <1>                0.0000
     27 N27         -7.8259  -2.5071   2.8262 N.pl3          1 <1>                0.0000
     28 N28         -7.1098  -0.6479   4.0582 N.2            1 <1>                0.0000
     29 C29         -6.1645   0.2161   4.4243 C.2            1 <1>                0.0000
     30 O30         -6.4346   1.0983   5.2223 O.2            1 <1>                0.0000
     31 O31          2.0334  -1.0747  -1.7031 O.3            1 <1>                0.0000
     32 C32          3.1319  -1.4438  -2.5393 C.3            1 <1>                0.0000
     33 C33          2.9396  -0.8382  -3.9311 C.3            1 <1>                0.0000
     34 O34          4.0382  -1.2074  -4.7671 O.3            1 <1>                0.0000
     35 C35          1.6372  -1.3619  -4.5397 C.3            1 <1>                0.0000
     36 O36          0.5386  -0.9927  -3.7037 O.3            1 <1>                0.0000
     37 C37          1.4449  -0.7563  -5.9315 C.3            1 <1>                0.0000
     38 O38          0.2912  -1.3330  -6.5467 O.3            1 <1>                0.0000
     39 C39          2.1475  -3.1166  -0.4510 C.2            1 <1>                0.0000
     40 O40          1.2317  -3.7773   0.0086 O.co2          1 <1>                0.0000
     41 O41          3.1014  -3.6733  -0.9675 O.co2          1 <1>                0.0000
     42 H42          6.5161   3.1484  -1.8067 H              1 <1>                0.0000
     43 H43          4.9612   3.1385  -2.6730 H              1 <1>                0.0000
     44 H44          4.9896   3.0702  -0.8945 H              1 <1>                0.0000
     45 H45          3.5403   1.0049  -1.8414 H              1 <1>                0.0000
     46 H46          5.2776  -1.2361  -2.5432 H              1 <1>                0.0000
     47 H47          4.6713  -2.5680  -0.5600 H              1 <1>                0.0000
     48 H48          5.9259  -1.2537   0.9908 H              1 <1>                0.0000
     49 H49          3.4376  -1.5372   1.3086 H              1 <1>                0.0000
     50 H50          3.3094  -0.0086   0.4034 H              1 <1>                0.0000
     51 H51         -0.8472   2.2444   2.3657 H              1 <1>                0.0000
     52 H52         -1.6178   2.2500   0.7612 H              1 <1>                0.0000
     53 H53         -3.4255   0.7385   1.7089 H              1 <1>                0.0000
     54 H54         -3.7551   1.0614   5.4175 H              1 <1>                0.0000
     55 H55         -5.3901   2.6000   3.7838 H              1 <1>                0.0000
     56 H56         -4.0866   4.4054   4.6481 H              1 <1>                0.0000
     57 H57         -4.3152   2.9064   1.7610 H              1 <1>                0.0000
     58 H58         -3.0886   4.6797   2.8416 H              1 <1>                0.0000
     59 H59         -3.5973  -0.9060   2.6268 H              1 <1>                0.0000
     60 H60         -5.3135  -2.5130   1.9441 H              1 <1>                0.0000
     61 H61         -7.6278  -3.2149   2.1932 H              1 <1>                0.0000
     62 H62         -8.7170  -2.4270   3.2009 H              1 <1>                0.0000
     63 H63          3.1795  -2.5299  -2.6186 H              1 <1>                0.0000
     64 H64          2.8926   0.2478  -3.8515 H              1 <1>                0.0000
     65 H65          4.1409  -2.1620  -4.8829 H              1 <1>                0.0000
     66 H66          1.6842  -2.4480  -4.6193 H              1 <1>                0.0000
     67 H67          0.4359  -0.0381  -3.5878 H              1 <1>                0.0000
     68 H68          1.3090   0.3216  -5.8432 H              1 <1>                0.0000
     69 H69          2.3238  -0.9629  -6.5422 H              1 <1>                0.0000
     70 H70          0.1081  -0.9949  -7.4339 H              1 <1>                0.0000
@<TRIPOS>BOND
    1    1    2 1     
    2    1   42 1     
    3    1   43 1     
    4    1   44 1     
    5    2    3 2     
    6    2    4 am    
    7    4    5 1     
    8    4   45 1     
    9    5   32 1     
   10    5    6 1     
   11    5   46 1     
   12    6    7 1     
   13    6    8 1     
   14    6   47 1     
   15    7   48 1     
   16    8    9 1     
   17    8   49 1     
   18    8   50 1     
   19    9   10 1     
   20    9   31 1     
   21    9   39 1     
   22   10   11 1     
   23   11   12 ar    
   24   11   13 ar    
   25   11   14 1     
   26   14   15 1     
   27   15   16 1     
   28   15   51 1     
   29   15   52 1     
   30   16   21 1     
   31   16   17 1     
   32   16   53 1     
   33   17   18 1     
   34   18   19 1     
   35   18   23 1     
   36   18   54 1     
   37   19   20 1     
   38   19   21 1     
   39   19   55 1     
   40   20   56 1     
   41   21   22 1     
   42   21   57 1     
   43   22   58 1     
   44   23   29 am    
   45   23   24 1     
   46   24   25 2     
   47   24   59 1     
   48   25   26 1     
   49   25   60 1     
   50   26   27 1     
   51   26   28 2     
   52   27   61 1     
   53   27   62 1     
   54   28   29 1     
   55   29   30 2     
   56   31   32 1     
   57   32   33 1     
   58   32   63 1     
   59   33   34 1     
   60   33   35 1     
   61   33   64 1     
   62   34   65 1     
   63   35   36 1     
   64   35   37 1     
   65   35   66 1     
   66   36   67 1     
   67   37   38 1     
   68   37   68 1     
   69   37   69 1     
   70   38   70 1     
   71   39   40 ar    
   72   39   41 ar    
@<TRIPOS>SUBSTRUCTURE
      1 ****           1
@<TRIPOS>SET
DONOR_HYDROGENS      STATIC     ATOMS    <user>   **** ""
9 45 48 56 58 61 62 65 67 70
ATOM$RED        STATIC     ATOMS    COLORGROUP SYSTEM
9 45 48 56 58 61 62 65 67 70
