#       Name:                NGU
#       Creating user name   gbret
#       Creation time:       Fri Sep  9 13:07:49 2016


#       File generated by GOLD software.
#

@<TRIPOS>MOLECULE
NGU
   105   111     1
SMALL
NO_CHARGES


@<TRIPOS>ATOM
      1 C1          -4.8561   6.6982   3.4693 C.3            1 <1>                0.0000
      2 O2          -3.7598   5.7926   3.3273 O.3            1 <1>                0.0000
      3 C3          -2.6380   6.3424   2.6336 C.3            1 <1>                0.0000
      4 C4          -1.3433   5.8825   3.3090 C.3            1 <1>                0.0000
      5 C5          -1.3538   6.3113   4.7777 C.3            1 <1>                0.0000
      6 O6          -1.2454   4.4591   3.2288 O.3            1 <1>                0.0000
      7 C7          -1.2017   3.9515   1.8937 C.3            1 <1>                0.0000
      8 O8          -1.0777   2.5284   1.9287 O.3            1 <1>                0.0000
      9 C9           0.2096   2.0671   2.3438 C.3            1 <1>                0.0000
     10 C10          0.1932   1.8179   3.8503 C.3            1 <1>                0.0000
     11 C11         -0.6978   0.6012   4.1278 C.3            1 <1>                0.0000
     12 C12         -0.9319   0.4663   5.6337 C.3            1 <1>                0.0000
     13 O13         -1.9503   0.7589   3.4581 O.3            1 <1>                0.0000
     14 C14          0.0135  -0.6443   3.6039 C.3            1 <1>                0.0000
     15 C15         -0.9272  -1.8197   3.6733 C.2            1 <1>                0.0000
     16 O16         -1.6082  -2.1056   2.7172 O.2            1 <1>                0.0000
     17 O17         -1.0084  -2.5488   4.7974 O.3            1 <1>                0.0000
     18 C18         -1.9355  -3.6662   4.7927 C.3            1 <1>                0.0000
     19 C19          0.4536  -0.4439   2.1763 C.ar           1 <1>                0.0000
     20 C20          0.7741  -1.5825   1.4393 C.ar           1 <1>                0.0000
     21 C21          1.1914  -1.4767   0.1218 C.ar           1 <1>                0.0000
     22 C22          1.5375  -2.6815  -0.6634 C.2            1 <1>                0.0000
     23 O23          1.2318  -3.7874  -0.2610 O.2            1 <1>                0.0000
     24 C24          2.2576  -2.5246  -1.9405 C.ar           1 <1>                0.0000
     25 C25          2.8512  -3.6272  -2.5609 C.ar           1 <1>                0.0000
     26 O26          2.7823  -4.8451  -1.9695 O.3            1 <1>                0.0000
     27 C27          3.1904  -5.9827  -2.7201 C.3            1 <1>                0.0000
     28 O28          4.3641  -5.6766  -3.4745 O.3            1 <1>                0.0000
     29 C29          4.1519  -4.6514  -4.4543 C.3            1 <1>                0.0000
     30 C30          5.4697  -4.2685  -5.1309 C.3            1 <1>                0.0000
     31 C31          3.1454  -5.1859  -5.4867 C.3            1 <1>                0.0000
     32 O32          3.6427  -6.3937  -6.0661 O.3            1 <1>                0.0000
     33 C33          1.8251  -5.4653  -4.7585 C.3            1 <1>                0.0000
     34 C34          2.0762  -6.4746  -3.6362 C.3            1 <1>                0.0000
     35 O35          2.4518  -7.7305  -4.2051 O.3            1 <1>                0.0000
     36 N36          1.3049  -4.2156  -4.1878 N.4            1 <1>                0.0000
     37 H37          2.0750  -3.6113  -3.9434 H              1 <1>                0.0000
     38 C38          0.4503  -3.5443  -5.1763 C.3            1 <1>                0.0000
     39 C39          0.5180  -4.5170  -2.9845 C.3            1 <1>                0.0000
     40 O40          0.0070  -3.3019  -2.4327 O.3            1 <1>                0.0000
     41 C41          3.5203  -3.4597  -3.7709 C.ar           1 <1>                0.0000
     42 C42          3.6115  -2.2156  -4.3550 C.ar           1 <1>                0.0000
     43 C43          3.0314  -1.1031  -3.7473 C.ar           1 <1>                0.0000
     44 O44          3.1280   0.1182  -4.3291 O.co2          1 <1>                0.0000
     45 C45          2.3513  -1.2509  -2.5379 C.ar           1 <1>                0.0000
     46 C46          1.7310  -0.0867  -1.8778 C.2            1 <1>                0.0000
     47 O47          1.5853   0.9583  -2.4829 O.2            1 <1>                0.0000
     48 C48          1.2888  -0.2047  -0.4752 C.ar           1 <1>                0.0000
     49 C49          0.9646   0.9273   0.2700 C.ar           1 <1>                0.0000
     50 O50          1.0560   2.1566  -0.2949 O.co2          1 <1>                0.0000
     51 C51          0.5472   0.8009   1.5997 C.ar           1 <1>                0.0000
     52 C52         -2.4906   4.3339   1.1614 C.3            1 <1>                0.0000
     53 O53         -3.6086   3.7309   1.8161 O.3            1 <1>                0.0000
     54 C54         -3.9404   2.4318   1.3218 C.3            1 <1>                0.0000
     55 C55         -2.6468   5.8575   1.1807 C.3            1 <1>                0.0000
     56 C56         -3.9714   6.2446   0.5200 C.3            1 <1>                0.0000
     57 O57         -1.5625   6.4582   0.4697 O.3            1 <1>                0.0000
     58 C58         -1.4751   6.0616  -0.9004 C.3            1 <1>                0.0000
     59 H59         -4.5626   7.5256   4.1153 H              1 <1>                0.0000
     60 H60         -5.1377   7.0843   2.4897 H              1 <1>                0.0000
     61 H61         -5.7043   6.1754   3.9114 H              1 <1>                0.0000
     62 H62         -2.6942   7.4307   2.6548 H              1 <1>                0.0000
     63 H63         -0.4896   6.3347   2.8044 H              1 <1>                0.0000
     64 H64         -2.1534   5.7889   5.3030 H              1 <1>                0.0000
     65 H65         -0.3961   6.0635   5.2354 H              1 <1>                0.0000
     66 H66         -1.5194   7.3867   4.8410 H              1 <1>                0.0000
     67 H67         -0.3459   4.3782   1.3705 H              1 <1>                0.0000
     68 H68          0.9551   2.8284   2.1142 H              1 <1>                0.0000
     69 H69          1.2060   1.6191   4.2008 H              1 <1>                0.0000
     70 H70         -0.2085   2.6920   4.3629 H              1 <1>                0.0000
     71 H71         -1.4217   1.3655   6.0073 H              1 <1>                0.0000
     72 H72         -1.5655  -0.3994   5.8268 H              1 <1>                0.0000
     73 H73          0.0247   0.3365   6.1399 H              1 <1>                0.0000
     74 H74         -2.4160   1.5762   3.6821 H              1 <1>                0.0000
     75 H75          0.8872  -0.8464   4.2236 H              1 <1>                0.0000
     76 H76         -2.9453  -3.2998   4.6077 H              1 <1>                0.0000
     77 H77         -1.6544  -4.3684   4.0078 H              1 <1>                0.0000
     78 H78         -1.9030  -4.1694   5.7590 H              1 <1>                0.0000
     79 H79          0.6967  -2.5566   1.8993 H              1 <1>                0.0000
     80 H80          3.4400  -6.7825  -2.0228 H              1 <1>                0.0000
     81 H81          5.8931  -5.1440  -5.6233 H              1 <1>                0.0000
     82 H82          5.2855  -3.4893  -5.8705 H              1 <1>                0.0000
     83 H83          6.1694  -3.8996  -4.3810 H              1 <1>                0.0000
     84 H84          2.9867  -4.4411  -6.2666 H              1 <1>                0.0000
     85 H85          4.4889  -6.2915  -6.5230 H              1 <1>                0.0000
     86 H86          1.1005  -5.8753  -5.4620 H              1 <1>                0.0000
     87 H87          1.1626  -6.6035  -3.0559 H              1 <1>                0.0000
     88 H88          2.6275  -8.4215  -3.5518 H              1 <1>                0.0000
     89 H89         -0.3817  -4.1971  -5.4403 H              1 <1>                0.0000
     90 H90          0.0644  -2.6170  -4.7528 H              1 <1>                0.0000
     91 H91          1.0342  -3.3206  -6.0691 H              1 <1>                0.0000
     92 H92         -0.3114  -5.1735  -3.2478 H              1 <1>                0.0000
     93 H93          1.1532  -5.0110  -2.2493 H              1 <1>                0.0000
     94 H94         -0.5238  -3.4253  -1.6340 H              1 <1>                0.0000
     95 H95          4.1372  -2.1009  -5.2914 H              1 <1>                0.0000
     96 H96         -2.4408   3.9849   0.1300 H              1 <1>                0.0000
     97 H97         -4.8510   2.0802   1.8068 H              1 <1>                0.0000
     98 H98         -4.0987   2.4825   0.2446 H              1 <1>                0.0000
     99 H99         -3.1244   1.7419   1.5371 H              1 <1>                0.0000
    100 H100        -4.7855   5.6886   0.9849 H              1 <1>                0.0000
    101 H101        -4.1422   7.3136   0.6474 H              1 <1>                0.0000
    102 H102        -3.9301   6.0075  -0.5431 H              1 <1>                0.0000
    103 H103        -0.6273   6.5606  -1.3698 H              1 <1>                0.0000
    104 H104        -1.3385   4.9817  -0.9580 H              1 <1>                0.0000
    105 H105        -2.3928   6.3398  -1.4185 H              1 <1>                0.0000
@<TRIPOS>BOND
    1    1    2 1     
    2    1   59 1     
    3    1   60 1     
    4    1   61 1     
    5    2    3 1     
    6    3   55 1     
    7    3    4 1     
    8    3   62 1     
    9    4    5 1     
   10    4    6 1     
   11    4   63 1     
   12    5   64 1     
   13    5   65 1     
   14    5   66 1     
   15    6    7 1     
   16    7    8 1     
   17    7   52 1     
   18    7   67 1     
   19    8    9 1     
   20    9   51 1     
   21    9   10 1     
   22    9   68 1     
   23   10   11 1     
   24   10   69 1     
   25   10   70 1     
   26   11   12 1     
   27   11   13 1     
   28   11   14 1     
   29   12   71 1     
   30   12   72 1     
   31   12   73 1     
   32   13   74 1     
   33   14   15 1     
   34   14   19 1     
   35   14   75 1     
   36   15   16 2     
   37   15   17 1     
   38   17   18 1     
   39   18   76 1     
   40   18   77 1     
   41   18   78 1     
   42   19   51 ar    
   43   19   20 ar    
   44   20   21 ar    
   45   20   79 1     
   46   21   48 ar    
   47   21   22 1     
   48   22   23 2     
   49   22   24 1     
   50   24   45 ar    
   51   24   25 ar    
   52   25   41 ar    
   53   25   26 1     
   54   26   27 1     
   55   27   34 1     
   56   27   28 1     
   57   27   80 1     
   58   28   29 1     
   59   29   30 1     
   60   29   31 1     
   61   29   41 1     
   62   30   81 1     
   63   30   82 1     
   64   30   83 1     
   65   31   32 1     
   66   31   33 1     
   67   31   84 1     
   68   32   85 1     
   69   33   34 1     
   70   33   36 1     
   71   33   86 1     
   72   34   35 1     
   73   34   87 1     
   74   35   88 1     
   75   36   37 1     
   76   36   38 1     
   77   36   39 1     
   78   38   89 1     
   79   38   90 1     
   80   38   91 1     
   81   39   40 1     
   82   39   92 1     
   83   39   93 1     
   84   40   94 1     
   85   41   42 ar    
   86   42   43 ar    
   87   42   95 1     
   88   43   44 ar    
   89   43   45 ar    
   90   45   46 1     
   91   46   47 2     
   92   46   48 1     
   93   48   49 ar    
   94   49   50 ar    
   95   49   51 ar    
   96   52   53 1     
   97   52   55 1     
   98   52   96 1     
   99   53   54 1     
  100   54   97 1     
  101   54   98 1     
  102   54   99 1     
  103   55   56 1     
  104   55   57 1     
  105   56  100 1     
  106   56  101 1     
  107   56  102 1     
  108   57   58 1     
  109   58  103 1     
  110   58  104 1     
  111   58  105 1     
@<TRIPOS>SUBSTRUCTURE
      1 ****           1
@<TRIPOS>SET
DONOR_HYDROGENS      STATIC     ATOMS    <user>   **** ""
5 74 85 88 37 94
ATOM$RED        STATIC     ATOMS    COLORGROUP SYSTEM
5 74 85 88 37 94
