#       Name:                NRW
#       Creating user name   gbret
#       Creation time:       Fri Sep  9 13:23:43 2016


#       File generated by GOLD software.
#

@<TRIPOS>MOLECULE
NRW
    30    31     1
SMALL
NO_CHARGES


@<TRIPOS>ATOM
      1 C1           0.8716   1.6390   0.6614 C.3            1 <1>                0.0000
      2 N2           0.9181   0.1748   0.6527 N.am           1 <1>                0.0000
      3 C3           1.0565  -0.5612   1.9118 C.3            1 <1>                0.0000
      4 C4          -0.3102  -0.8592   2.4723 C.ar           1 <1>                0.0000
      5 C5          -0.9280   0.0378   3.3305 C.ar           1 <1>                0.0000
      6 C6          -2.1853  -0.2781   3.8217 C.ar           1 <1>                0.0000
      7 C7          -2.7771  -1.4682   3.4424 C.ar           1 <1>                0.0000
      8 N8          -2.1597  -2.2979   2.6245 N.ar           1 <1>                0.0000
      9 C9          -0.9661  -2.0272   2.1330 C.ar           1 <1>                0.0000
     10 C10          0.8336  -0.4952  -0.5137 C.2            1 <1>                0.0000
     11 O11          0.7758  -1.7097  -0.5144 O.2            1 <1>                0.0000
     12 C12          0.8112   0.2449  -1.7895 C.2            1 <1>                0.0000
     13 C13          0.6111  -0.2757  -3.0389 C.2            1 <1>                0.0000
     14 C14          0.6865   0.8492  -3.8900 C.2            1 <1>                0.0000
     15 C15          0.5362   0.8558  -5.3895 C.3            1 <1>                0.0000
     16 N16          0.9106   1.8786  -3.1262 N.2            1 <1>                0.0000
     17 O17          0.9778   1.5702  -1.9593 O.3            1 <1>                0.0000
     18 H18          1.8702   2.0354   0.4776 H              1 <1>                0.0000
     19 H19          0.1939   1.9856  -0.1188 H              1 <1>                0.0000
     20 H20          0.5161   1.9855   1.6317 H              1 <1>                0.0000
     21 H21          1.5864  -1.4962   1.7298 H              1 <1>                0.0000
     22 H22          1.6182   0.0418   2.6252 H              1 <1>                0.0000
     23 H23         -0.4411   0.9605   3.6099 H              1 <1>                0.0000
     24 H24         -2.6958   0.3970   4.4926 H              1 <1>                0.0000
     25 H25         -3.7564  -1.7217   3.8206 H              1 <1>                0.0000
     26 H26         -0.4916  -2.7312   1.4654 H              1 <1>                0.0000
     27 H27          0.4366  -1.3063  -3.3109 H              1 <1>                0.0000
     28 H28         -0.5122   1.0025  -5.6489 H              1 <1>                0.0000
     29 H29          1.1315   1.6660  -5.8107 H              1 <1>                0.0000
     30 H30          0.8807  -0.0962  -5.7934 H              1 <1>                0.0000
@<TRIPOS>BOND
    1    1    2 1     
    2    1   18 1     
    3    1   19 1     
    4    1   20 1     
    5    2    3 1     
    6    2   10 am    
    7    3    4 1     
    8    3   21 1     
    9    3   22 1     
   10    4    9 ar    
   11    4    5 ar    
   12    5    6 ar    
   13    5   23 1     
   14    6    7 ar    
   15    6   24 1     
   16    7    8 ar    
   17    7   25 1     
   18    8    9 ar    
   19    9   26 1     
   20   10   11 2     
   21   10   12 1     
   22   12   17 1     
   23   12   13 2     
   24   13   14 1     
   25   13   27 1     
   26   14   15 1     
   27   14   16 2     
   28   15   28 1     
   29   15   29 1     
   30   15   30 1     
   31   16   17 1     
@<TRIPOS>SUBSTRUCTURE
      1 ****           1
