#       Name:                NTT
#       Creating user name   gbret
#       Creation time:       Fri Sep  9 13:26:52 2016


#       File generated by GOLD software.
#

@<TRIPOS>MOLECULE
NTT
    41    43     1
SMALL
NO_CHARGES


@<TRIPOS>ATOM
      1 C1           0.1667   4.3975   0.2065 C.3            1 <1>                0.0000
      2 N2           0.1866   2.9286   0.1984 N.3            1 <1>                0.0000
      3 C3          -1.1631   2.3847  -0.0084 C.3            1 <1>                0.0000
      4 C4          -1.1016   0.8482   0.0877 C.3            1 <1>                0.0000
      5 C5          -2.4263   0.1830  -0.2912 C.3            1 <1>                0.0000
      6 O6          -2.7719   0.5390  -1.6313 O.3            1 <1>                0.0000
      7 P7          -4.1086   0.0159  -2.3606 P.3            1 <1>                0.0000
      8 O8          -5.3652   0.5968  -1.6271 O.co2          1 <1>                0.0000
      9 O9          -4.1091   0.4912  -3.8534 O.co2          1 <1>                0.0000
     10 O10         -4.1521  -1.5494  -2.3109 O.co2          1 <1>                0.0000
     11 O11          0.0058   0.4130  -0.7253 O.3            1 <1>                0.0000
     12 C12          1.2160   0.4883   0.0390 C.3            1 <1>                0.0000
     13 C13          0.8283   0.9642   1.4607 C.3            1 <1>                0.0000
     14 O14          0.8056   2.4055   1.4181 O.3            1 <1>                0.0000
     15 C15         -0.6625   0.5223   1.5419 C.3            1 <1>                0.0000
     16 O16         -1.3875   1.3038   2.4936 O.3            1 <1>                0.0000
     17 N17          1.8445  -0.8332   0.1094 N.am           1 <1>                0.0000
     18 C18          1.2714  -1.8918  -0.5411 C.2            1 <1>                0.0000
     19 C19          1.8511  -3.1096  -0.4765 C.2            1 <1>                0.0000
     20 C20          1.2348  -4.2872  -1.1867 C.3            1 <1>                0.0000
     21 C21          3.0458  -3.2652   0.2670 C.2            1 <1>                0.0000
     22 O22          3.5871  -4.3537   0.3395 O.2            1 <1>                0.0000
     23 N23          3.5789  -2.1970   0.8938 N.am           1 <1>                0.0000
     24 H24          4.3973  -2.2957   1.4051 H              1 <1>                0.0000
     25 C25          2.9829  -0.9932   0.8085 C.2            1 <1>                0.0000
     26 O26          3.4753  -0.0389   1.3786 O.2            1 <1>                0.0000
     27 H27          1.1892   4.7748   0.1988 H              1 <1>                0.0000
     28 H28         -0.3605   4.7586  -0.6766 H              1 <1>                0.0000
     29 H29         -0.3435   4.7490   1.1033 H              1 <1>                0.0000
     30 H30         -1.8342   2.7719   0.7582 H              1 <1>                0.0000
     31 H31         -1.5263   2.6746  -0.9944 H              1 <1>                0.0000
     32 H32         -2.3232  -0.8997  -0.2180 H              1 <1>                0.0000
     33 H33         -3.2095   0.5201   0.3878 H              1 <1>                0.0000
     34 H34          1.8998   1.2034  -0.4182 H              1 <1>                0.0000
     35 H35          1.4657   0.5613   2.2478 H              1 <1>                0.0000
     36 H36         -0.7510  -0.5429   1.7553 H              1 <1>                0.0000
     37 H37         -1.0555   1.2286   3.3988 H              1 <1>                0.0000
     38 H38          0.3596  -1.7541  -1.1032 H              1 <1>                0.0000
     39 H39          1.6375  -4.3533  -2.1975 H              1 <1>                0.0000
     40 H40          1.4676  -5.2024  -0.6423 H              1 <1>                0.0000
     41 H41          0.1535  -4.1578  -1.2341 H              1 <1>                0.0000
@<TRIPOS>BOND
    1    1    2 1     
    2    1   27 1     
    3    1   28 1     
    4    1   29 1     
    5    2   14 1     
    6    2    3 1     
    7    3    4 1     
    8    3   30 1     
    9    3   31 1     
   10    4   15 1     
   11    4    5 1     
   12    4   11 1     
   13    5    6 1     
   14    5   32 1     
   15    5   33 1     
   16    6    7 1     
   17    7    8 ar    
   18    7    9 ar    
   19    7   10 ar    
   20   11   12 1     
   21   12   13 1     
   22   12   17 1     
   23   12   34 1     
   24   13   14 1     
   25   13   15 1     
   26   13   35 1     
   27   15   16 1     
   28   15   36 1     
   29   16   37 1     
   30   17   25 1     
   31   17   18 1     
   32   18   19 2     
   33   18   38 1     
   34   19   20 1     
   35   19   21 1     
   36   20   39 1     
   37   20   40 1     
   38   20   41 1     
   39   21   22 2     
   40   21   23 1     
   41   23   24 1     
   42   23   25 1     
   43   25   26 2     
@<TRIPOS>SUBSTRUCTURE
      1 ****           1
@<TRIPOS>SET
DONOR_HYDROGENS      STATIC     ATOMS    <user>   **** ""
2 37 24
ATOM$RED        STATIC     ATOMS    COLORGROUP SYSTEM
2 37 24
