#       Name:                NVX
#       Creating user name   gbret
#       Creation time:       Fri Sep  9 13:28:44 2016


#       File generated by GOLD software.
#

@<TRIPOS>MOLECULE
NVX
    42    45     1
SMALL
NO_CHARGES


@<TRIPOS>ATOM
      1 Cl1         -1.6247  -5.6963   1.2239 Cl             1 <1>                0.0000
      2 C2          -2.0643  -4.0688   0.8094 C.ar           1 <1>                0.0000
      3 C3          -3.3524  -3.6185   1.0488 C.ar           1 <1>                0.0000
      4 C4          -3.7120  -2.3231   0.7218 C.ar           1 <1>                0.0000
      5 C5          -2.7892  -1.4696   0.1544 C.ar           1 <1>                0.0000
      6 C6          -1.4868  -1.9158  -0.0906 C.ar           1 <1>                0.0000
      7 C7          -1.1284  -3.2247   0.2475 C.ar           1 <1>                0.0000
      8 C8          -0.4967  -1.0110  -0.6962 C.2            1 <1>                0.0000
      9 O9          -0.8094   0.1246  -0.9840 O.2            1 <1>                0.0000
     10 C10          0.9058  -1.4958  -0.9587 C.3            1 <1>                0.0000
     11 C11          1.0659  -1.8936  -2.4378 C.3            1 <1>                0.0000
     12 N12          2.1325  -1.0395  -3.0037 N.4            1 <1>                0.0000
     13 H13          3.0225  -1.5116  -2.9483 H              1 <1>                0.0000
     14 H14          1.9204  -0.8075  -3.9625 H              1 <1>                0.0000
     15 C15          2.1520   0.1898  -2.1702 C.3            1 <1>                0.0000
     16 C16          1.9200  -0.3503  -0.7366 C.3            1 <1>                0.0000
     17 C17          1.3315   0.7190   0.1473 C.ar           1 <1>                0.0000
     18 C18          0.7912   0.3705   1.3784 C.ar           1 <1>                0.0000
     19 C19          0.2480   1.3315   2.2026 C.ar           1 <1>                0.0000
     20 C20          0.2427   2.6635   1.7934 C.ar           1 <1>                0.0000
     21 C21          0.7913   3.0215   0.5421 C.ar           1 <1>                0.0000
     22 C22          1.3411   2.0299  -0.2730 C.ar           1 <1>                0.0000
     23 N23          0.7745   4.3244   0.1648 N.2            1 <1>                0.0000
     24 C24          0.2675   5.2467   0.9251 C.2            1 <1>                0.0000
     25 N25         -0.2802   4.9939   2.1425 N.am           1 <1>                0.0000
     26 H26         -0.6439   5.7244   2.6668 H              1 <1>                0.0000
     27 C27         -0.3234   3.7321   2.6300 C.2            1 <1>                0.0000
     28 O28         -0.8118   3.4912   3.7187 O.2            1 <1>                0.0000
     29 H29         -4.0798  -4.2822   1.4926 H              1 <1>                0.0000
     30 H30         -4.7182  -1.9795   0.9111 H              1 <1>                0.0000
     31 H31         -3.0719  -0.4588  -0.1005 H              1 <1>                0.0000
     32 H32         -0.1244  -3.5765   0.0617 H              1 <1>                0.0000
     33 H33          1.1410  -2.3402  -0.3107 H              1 <1>                0.0000
     34 H34          1.3521  -2.9427  -2.5113 H              1 <1>                0.0000
     35 H35          0.1309  -1.7227  -2.9715 H              1 <1>                0.0000
     36 H36          3.1189   0.6879  -2.2418 H              1 <1>                0.0000
     37 H37          1.3476   0.8651  -2.4617 H              1 <1>                0.0000
     38 H38          2.8486  -0.7338  -0.3139 H              1 <1>                0.0000
     39 H39          0.7967  -0.6629   1.6922 H              1 <1>                0.0000
     40 H40         -0.1710   1.0545   3.1587 H              1 <1>                0.0000
     41 H41          1.7644   2.2890  -1.2322 H              1 <1>                0.0000
     42 H42          0.2822   6.2672   0.5719 H              1 <1>                0.0000
@<TRIPOS>BOND
    1    1    2 1     
    2    2    7 ar    
    3    2    3 ar    
    4    3    4 ar    
    5    3   29 1     
    6    4    5 ar    
    7    4   30 1     
    8    5    6 ar    
    9    5   31 1     
   10    6    7 ar    
   11    6    8 1     
   12    7   32 1     
   13    8    9 2     
   14    8   10 1     
   15   10   16 1     
   16   10   11 1     
   17   10   33 1     
   18   11   12 1     
   19   11   34 1     
   20   11   35 1     
   21   12   13 1     
   22   12   14 1     
   23   12   15 1     
   24   15   16 1     
   25   15   36 1     
   26   15   37 1     
   27   16   17 1     
   28   16   38 1     
   29   17   22 ar    
   30   17   18 ar    
   31   18   19 ar    
   32   18   39 1     
   33   19   20 ar    
   34   19   40 1     
   35   20   27 1     
   36   20   21 ar    
   37   21   22 ar    
   38   21   23 1     
   39   22   41 1     
   40   23   24 2     
   41   24   25 1     
   42   24   42 1     
   43   25   26 1     
   44   25   27 am    
   45   27   28 2     
@<TRIPOS>SUBSTRUCTURE
      1 ****           1
@<TRIPOS>SET
DONOR_HYDROGENS      STATIC     ATOMS    <user>   **** ""
3 13 14 26
ATOM$RED        STATIC     ATOMS    COLORGROUP SYSTEM
3 13 14 26
