#       Name:                O8A
#       Creating user name   gbret
#       Creation time:       Fri Sep  9 13:36:00 2016


#       File generated by GOLD software.
#

@<TRIPOS>MOLECULE
O8A
    40    43     1
SMALL
NO_CHARGES


@<TRIPOS>ATOM
      1 C1           0.7023   2.9491  -2.8600 C.3            1 <1>                0.0000
      2 C2           0.7228   1.4422  -2.8683 C.2            1 <1>                0.0000
      3 N3           0.7284   0.7025  -3.9385 N.2            1 <1>                0.0000
      4 C4           0.7481  -0.6100  -3.5890 C.ar           1 <1>                0.0000
      5 C5           0.7611  -1.7998  -4.3218 C.ar           1 <1>                0.0000
      6 C6           0.7804  -3.0113  -3.6599 C.ar           1 <1>                0.0000
      7 O7           0.7935  -4.1699  -4.3715 O.3            1 <1>                0.0000
      8 C8           0.8132  -5.3889  -3.6260 C.3            1 <1>                0.0000
      9 F9          -0.3249  -5.4583  -2.8155 F              1 <1>                0.0000
     10 F10          0.8246  -6.4747  -4.5080 F              1 <1>                0.0000
     11 F11          1.9594  -5.4269  -2.8247 F              1 <1>                0.0000
     12 C12          0.7871  -3.0539  -2.2684 C.ar           1 <1>                0.0000
     13 C13          0.7740  -1.8872  -1.5350 C.ar           1 <1>                0.0000
     14 C14          0.7550  -0.6616  -2.1852 C.ar           1 <1>                0.0000
     15 N15          0.7440   0.6549  -1.7554 N.pl3          1 <1>                0.0000
     16 C16          0.7510   1.0925  -0.4341 C.2            1 <1>                0.0000
     17 C17          1.7517   1.7939   0.1338 C.2            1 <1>                0.0000
     18 C18          1.5532   2.1240   1.4499 C.2            1 <1>                0.0000
     19 C19          0.3608   1.6744   1.9488 C.2            1 <1>                0.0000
     20 S20         -0.5095   0.8194   0.6828 S.3            1 <1>                0.0000
     21 C21         -0.1160   1.8775   3.3158 C.2            1 <1>                0.0000
     22 O22          0.5682   2.4914   4.1143 O.2            1 <1>                0.0000
     23 N23         -1.3129   1.3854   3.6922 N.am           1 <1>                0.0000
     24 C24         -1.7907   1.5889   5.0621 C.3            1 <1>                0.0000
     25 C25         -3.2547   1.9933   5.2469 C.3            1 <1>                0.0000
     26 C26         -2.7989   0.5801   5.6158 C.3            1 <1>                0.0000
     27 H27          1.7249   3.3264  -2.8677 H              1 <1>                0.0000
     28 H28          0.1752   3.3102  -3.7431 H              1 <1>                0.0000
     29 H29          0.1921   3.3006  -1.9632 H              1 <1>                0.0000
     30 H30          0.7556  -1.7718  -5.4014 H              1 <1>                0.0000
     31 H31          0.8023  -4.0070  -1.7607 H              1 <1>                0.0000
     32 H32          0.7793  -1.9268  -0.4558 H              1 <1>                0.0000
     33 H33          2.6434   2.0747  -0.4070 H              1 <1>                0.0000
     34 H34          2.2676   2.6839   2.0351 H              1 <1>                0.0000
     35 H35         -1.8580   0.8963   3.0561 H              1 <1>                0.0000
     36 H36         -1.0616   2.0052   5.7573 H              1 <1>                0.0000
     37 H37         -3.4890   2.6759   6.0637 H              1 <1>                0.0000
     38 H38         -3.8623   2.1078   4.3492 H              1 <1>                0.0000
     39 H39         -3.1067  -0.2350   4.9610 H              1 <1>                0.0000
     40 H40         -2.7334   0.3330   6.6754 H              1 <1>                0.0000
@<TRIPOS>BOND
    1    1    2 1     
    2    1   27 1     
    3    1   28 1     
    4    1   29 1     
    5    2   15 1     
    6    2    3 2     
    7    3    4 1     
    8    4   14 ar    
    9    4    5 ar    
   10    5    6 ar    
   11    5   30 1     
   12    6    7 1     
   13    6   12 ar    
   14    7    8 1     
   15    8    9 1     
   16    8   10 1     
   17    8   11 1     
   18   12   13 ar    
   19   12   31 1     
   20   13   14 ar    
   21   13   32 1     
   22   14   15 1     
   23   15   16 1     
   24   16   20 1     
   25   16   17 2     
   26   17   18 1     
   27   17   33 1     
   28   18   19 2     
   29   18   34 1     
   30   19   20 1     
   31   19   21 1     
   32   21   22 2     
   33   21   23 am    
   34   23   24 1     
   35   23   35 1     
   36   24   26 1     
   37   24   25 1     
   38   24   36 1     
   39   25   26 1     
   40   25   37 1     
   41   25   38 1     
   42   26   39 1     
   43   26   40 1     
@<TRIPOS>SUBSTRUCTURE
      1 ****           1
@<TRIPOS>SET
DONOR_HYDROGENS      STATIC     ATOMS    <user>   **** ""
1 35
ATOM$RED        STATIC     ATOMS    COLORGROUP SYSTEM
1 35
