#       Name:                OBP
#       Creating user name   gbret
#       Creation time:       Fri Sep  9 13:39:34 2016


#       File generated by GOLD software.
#

@<TRIPOS>MOLECULE
OBP
    25    26     1
SMALL
NO_CHARGES


@<TRIPOS>ATOM
      1 O1           0.1310   1.5032  -1.6763 O.3            1 <1>                0.0000
      2 C2           0.1494   0.1449  -1.6838 C.ar           1 <1>                0.0000
      3 C3           0.1531  -0.5439  -2.8863 C.ar           1 <1>                0.0000
      4 C4           0.1713  -1.9256  -2.8926 C.ar           1 <1>                0.0000
      5 C5           0.1864  -2.6291  -1.7010 C.ar           1 <1>                0.0000
      6 C6           0.1829  -1.9559  -0.4963 C.ar           1 <1>                0.0000
      7 C7           0.1704  -0.5630  -0.4785 C.ar           1 <1>                0.0000
      8 C8           0.1671   0.1656   0.8135 C.ar           1 <1>                0.0000
      9 C9           1.2651   0.0798   1.6678 C.ar           1 <1>                0.0000
     10 C10          1.2568   0.7601   2.8683 C.ar           1 <1>                0.0000
     11 C11          0.1611   1.5258   3.2249 C.ar           1 <1>                0.0000
     12 C12         -0.9312   1.6145   2.3812 C.ar           1 <1>                0.0000
     13 C13         -0.9314   0.9429   1.1752 C.ar           1 <1>                0.0000
     14 S14         -2.3238   1.0569   0.1016 S.2            1 <1>                0.0000
     15 O15         -2.0006   2.2220  -0.7371 O.co2          1 <1>                0.0000
     16 O16         -2.1278  -0.0763  -0.8164 O.2            1 <1>                0.0000
     17 H17          1.0089   1.9085  -1.6825 H              1 <1>                0.0000
     18 H18          0.1414  -0.0003  -3.8194 H              1 <1>                0.0000
     19 H19          0.1734  -2.4588  -3.8317 H              1 <1>                0.0000
     20 H20          0.2007  -3.7089  -1.7138 H              1 <1>                0.0000
     21 H21          0.1940  -2.5083   0.4317 H              1 <1>                0.0000
     22 H22          2.1207  -0.5182   1.3908 H              1 <1>                0.0000
     23 H23          2.1070   0.6944   3.5310 H              1 <1>                0.0000
     24 H24          0.1585   2.0560   4.1658 H              1 <1>                0.0000
     25 H25         -1.7841   2.2134   2.6647 H              1 <1>                0.0000
@<TRIPOS>BOND
    1    1    2 1     
    2    1   17 1     
    3    2    7 ar    
    4    2    3 ar    
    5    3    4 ar    
    6    3   18 1     
    7    4    5 ar    
    8    4   19 1     
    9    5    6 ar    
   10    5   20 1     
   11    6    7 ar    
   12    6   21 1     
   13    7    8 1     
   14    8   13 ar    
   15    8    9 ar    
   16    9   10 ar    
   17    9   22 1     
   18   10   11 ar    
   19   10   23 1     
   20   11   12 ar    
   21   11   24 1     
   22   12   13 ar    
   23   12   25 1     
   24   13   14 1     
   25   14   15 1     
   26   14   16 2     
@<TRIPOS>SUBSTRUCTURE
      1 ****           1
@<TRIPOS>SET
DONOR_HYDROGENS      STATIC     ATOMS    <user>   **** ""
1 17
ATOM$RED        STATIC     ATOMS    COLORGROUP SYSTEM
1 17
