#       Name:                OE1
#       Creating user name   gbret
#       Creation time:       Fri Sep  9 13:41:49 2016


#       File generated by GOLD software.
#

@<TRIPOS>MOLECULE
OE1
    48    50     1
SMALL
NO_CHARGES


@<TRIPOS>ATOM
      1 C1          -0.2468   4.8284  -1.6190 C.3            1 <1>                0.0000
      2 C2          -0.2260   3.2985  -1.6274 C.3            1 <1>                0.0000
      3 C3           0.4901   2.8051  -2.8862 C.3            1 <1>                0.0000
      4 N4           0.5100   1.3403  -2.8942 N.pl3          1 <1>                0.0000
      5 C5          -0.6349   0.5951  -3.4235 C.3            1 <1>                0.0000
      6 C6          -0.4974   0.4592  -4.9413 C.3            1 <1>                0.0000
      7 C7          -1.6931  -0.3191  -5.4940 C.3            1 <1>                0.0000
      8 S8           1.8266   0.5268  -2.3051 S.o2           1 <1>                0.0000
      9 O9           1.8169  -0.7530  -2.9225 O.2            1 <1>                0.0000
     10 O10          2.9250   1.4239  -2.3932 O.2            1 <1>                0.0000
     11 C11          1.5446   0.2527  -0.5875 C.ar           1 <1>                0.0000
     12 C12          1.9644   1.1990   0.3370 C.ar           1 <1>                0.0000
     13 C13          1.7519   1.0017   1.6850 C.ar           1 <1>                0.0000
     14 C14          1.1135  -0.1519   2.1193 C.ar           1 <1>                0.0000
     15 N15          0.7571  -0.6411   3.3607 N.pl3          1 <1>                0.0000
     16 H16          0.9131  -0.2102   4.2156 H              1 <1>                0.0000
     17 C17          0.1428  -1.8475   3.1592 C.2            1 <1>                0.0000
     18 N18          0.1055  -2.1177   1.8776 N.2            1 <1>                0.0000
     19 C19          0.6882  -1.1108   1.1827 C.ar           1 <1>                0.0000
     20 C20          0.9103  -0.8861  -0.1800 C.ar           1 <1>                0.0000
     21 C21         -0.3974  -2.7160   4.2278 C.ar           1 <1>                0.0000
     22 C22         -0.3062  -2.3226   5.5634 C.ar           1 <1>                0.0000
     23 C23         -0.8124  -3.1370   6.5554 C.ar           1 <1>                0.0000
     24 C24         -1.4091  -4.3415   6.2282 C.ar           1 <1>                0.0000
     25 C25         -1.5023  -4.7375   4.9059 C.ar           1 <1>                0.0000
     26 C26         -1.0055  -3.9294   3.9040 C.ar           1 <1>                0.0000
     27 H27          0.7758   5.2057  -1.6267 H              1 <1>                0.0000
     28 H28         -0.7740   5.1894  -2.5020 H              1 <1>                0.0000
     29 H29         -0.7570   5.1799  -0.7222 H              1 <1>                0.0000
     30 H30          0.3012   2.9375  -0.7443 H              1 <1>                0.0000
     31 H31         -1.2486   2.9212  -1.6196 H              1 <1>                0.0000
     32 H32         -0.0371   3.1662  -3.7692 H              1 <1>                0.0000
     33 H33          1.5127   3.1824  -2.8939 H              1 <1>                0.0000
     34 H34         -0.6638  -0.3962  -2.9711 H              1 <1>                0.0000
     35 H35         -1.5558   1.1287  -3.1885 H              1 <1>                0.0000
     36 H36         -0.4685   1.4504  -5.3937 H              1 <1>                0.0000
     37 H37          0.4235  -0.0745  -5.1763 H              1 <1>                0.0000
     38 H38         -2.6140   0.2145  -5.2590 H              1 <1>                0.0000
     39 H39         -1.5951  -0.4159  -6.5753 H              1 <1>                0.0000
     40 H40         -1.7219  -1.3104  -5.0416 H              1 <1>                0.0000
     41 H41          2.4612   2.0960  -0.0019 H              1 <1>                0.0000
     42 H42          2.0810   1.7413   2.3999 H              1 <1>                0.0000
     43 H43          0.5828  -1.6131  -0.9085 H              1 <1>                0.0000
     44 H44          0.1600  -1.3828   5.8202 H              1 <1>                0.0000
     45 H45         -0.7424  -2.8337   7.5896 H              1 <1>                0.0000
     46 H46         -1.8035  -4.9756   7.0085 H              1 <1>                0.0000
     47 H47         -1.9686  -5.6793   4.6570 H              1 <1>                0.0000
     48 H48         -1.0789  -4.2396   2.8722 H              1 <1>                0.0000
@<TRIPOS>BOND
    1    1    2 1     
    2    1   27 1     
    3    1   28 1     
    4    1   29 1     
    5    2    3 1     
    6    2   30 1     
    7    2   31 1     
    8    3    4 1     
    9    3   32 1     
   10    3   33 1     
   11    4    5 1     
   12    4    8 1     
   13    5    6 1     
   14    5   34 1     
   15    5   35 1     
   16    6    7 1     
   17    6   36 1     
   18    6   37 1     
   19    7   38 1     
   20    7   39 1     
   21    7   40 1     
   22    8    9 2     
   23    8   10 2     
   24    8   11 1     
   25   11   20 ar    
   26   11   12 ar    
   27   12   13 ar    
   28   12   41 1     
   29   13   14 ar    
   30   13   42 1     
   31   14   19 ar    
   32   14   15 1     
   33   15   16 1     
   34   15   17 1     
   35   17   18 2     
   36   17   21 1     
   37   18   19 1     
   38   19   20 ar    
   39   20   43 1     
   40   21   26 ar    
   41   21   22 ar    
   42   22   23 ar    
   43   22   44 1     
   44   23   24 ar    
   45   23   45 1     
   46   24   25 ar    
   47   24   46 1     
   48   25   26 ar    
   49   25   47 1     
   50   26   48 1     
@<TRIPOS>SUBSTRUCTURE
      1 ****           1
@<TRIPOS>SET
DONOR_HYDROGENS      STATIC     ATOMS    <user>   **** ""
1 16
ATOM$RED        STATIC     ATOMS    COLORGROUP SYSTEM
1 16
