#       Name:                ON9
#       Creating user name   gbret
#       Creation time:       Fri Sep  9 13:48:34 2016


#       File generated by GOLD software.
#

@<TRIPOS>MOLECULE
ON9
    77    80     1
SMALL
NO_CHARGES


@<TRIPOS>ATOM
      1 C1           2.1054   6.7440  -0.0636 C.3            1 <1>                0.0000
      2 O2           1.8476   5.4166  -0.5926 O.3            1 <1>                0.0000
      3 C3           0.5762   5.1317  -0.9377 C.2            1 <1>                0.0000
      4 O4          -0.2932   5.9698  -0.8001 O.2            1 <1>                0.0000
      5 C5           0.2409   3.8063  -1.4808 C.2            1 <1>                0.0000
      6 C6           1.1045   2.7526  -1.6909 C.2            1 <1>                0.0000
      7 N7           0.3986   1.7252  -2.1993 N.pl3          1 <1>                0.0000
      8 C8           0.9608   0.4210  -2.5587 C.3            1 <1>                0.0000
      9 C9           0.8954  -0.5135  -1.3491 C.3            1 <1>                0.0000
     10 C10         -0.5677  -0.7872  -0.9946 C.3            1 <1>                0.0000
     11 C11         -0.6639  -1.2324   0.4660 C.3            1 <1>                0.0000
     12 C12         -0.4143  -0.0443   1.4192 C.3            1 <1>                0.0000
     13 C13         -1.7850   0.5335   1.6994 C.ar           1 <1>                0.0000
     14 C14         -2.1512   1.7658   2.2147 C.ar           1 <1>                0.0000
     15 C15         -3.4854   2.0789   2.3855 C.ar           1 <1>                0.0000
     16 C16         -4.4593   1.1600   2.0412 C.ar           1 <1>                0.0000
     17 C17         -4.0961  -0.0692   1.5272 C.ar           1 <1>                0.0000
     18 C18         -2.7586  -0.3852   1.3552 C.ar           1 <1>                0.0000
     19 C19         -2.1089  -1.6433   0.8203 C.3            1 <1>                0.0000
     20 C20          1.5941  -1.8325  -1.6851 C.3            1 <1>                0.0000
     21 O21          2.9178  -1.5648  -2.1522 O.3            1 <1>                0.0000
     22 C22          1.6616  -2.6940  -0.4505 C.ar           1 <1>                0.0000
     23 C23          2.4958  -2.3340   0.5919 C.ar           1 <1>                0.0000
     24 C24          2.5672  -3.1175   1.7316 C.ar           1 <1>                0.0000
     25 O25          3.3862  -2.7618   2.7522 O.3            1 <1>                0.0000
     26 C26          4.1487  -1.5649   2.5852 C.3            1 <1>                0.0000
     27 C27          1.7865  -4.2828   1.8261 C.ar           1 <1>                0.0000
     28 C28          1.8522  -5.1198   3.0258 C.2            1 <1>                0.0000
     29 C29          2.7552  -6.3260   3.0545 C.3            1 <1>                0.0000
     30 O30          1.1795  -4.8423   3.9967 O.2            1 <1>                0.0000
     31 C31          0.9420  -4.6377   0.7597 C.ar           1 <1>                0.0000
     32 O32          0.1827  -5.7587   0.8365 O.3            1 <1>                0.0000
     33 C33         -0.6511  -6.0555  -0.2855 C.3            1 <1>                0.0000
     34 C34          0.8846  -3.8348  -0.3671 C.ar           1 <1>                0.0000
     35 C35         -0.9145   2.0706  -2.3325 C.2            1 <1>                0.0000
     36 C36         -1.0824   3.3336  -1.9036 C.2            1 <1>                0.0000
     37 C37         -2.3719   4.1129  -1.8729 C.3            1 <1>                0.0000
     38 C38         -2.4853   4.9614  -3.1410 C.3            1 <1>                0.0000
     39 C39         -3.7748   5.7407  -3.1104 C.2            1 <1>                0.0000
     40 O40         -4.5329   5.6279  -2.1621 O.co2          1 <1>                0.0000
     41 O41         -4.0601   6.4839  -4.0338 O.co2          1 <1>                0.0000
     42 H42          3.1649   6.8413   0.1733 H              1 <1>                0.0000
     43 H43          1.8292   7.4915  -0.8073 H              1 <1>                0.0000
     44 H44          1.5156   6.8957   0.8404 H              1 <1>                0.0000
     45 H45          2.1645   2.7517  -1.4839 H              1 <1>                0.0000
     46 H46          0.3875  -0.0079  -3.3806 H              1 <1>                0.0000
     47 H47          1.9992   0.5452  -2.8661 H              1 <1>                0.0000
     48 H48          1.3932  -0.0446  -0.5003 H              1 <1>                0.0000
     49 H49         -1.1521   0.1218  -1.1367 H              1 <1>                0.0000
     50 H50         -0.9569  -1.5741  -1.6407 H              1 <1>                0.0000
     51 H51          0.0312  -2.0474   0.6675 H              1 <1>                0.0000
     52 H52          0.0460  -0.3918   2.3442 H              1 <1>                0.0000
     53 H53          0.2190   0.7006   0.9373 H              1 <1>                0.0000
     54 H54         -1.3910   2.4840   2.4842 H              1 <1>                0.0000
     55 H55         -3.7676   3.0406   2.7879 H              1 <1>                0.0000
     56 H56         -5.5031   1.4032   2.1745 H              1 <1>                0.0000
     57 H57         -4.8574  -0.7865   1.2585 H              1 <1>                0.0000
     58 H58         -2.6324  -1.9898  -0.0708 H              1 <1>                0.0000
     59 H59         -2.1048  -2.4210   1.5840 H              1 <1>                0.0000
     60 H60          1.0333  -2.3533  -2.4613 H              1 <1>                0.0000
     61 H61          3.4749  -1.1020  -1.5114 H              1 <1>                0.0000
     62 H62          3.0945  -1.4382   0.5167 H              1 <1>                0.0000
     63 H63          4.7598  -1.3967   3.4720 H              1 <1>                0.0000
     64 H64          4.7943  -1.6641   1.7126 H              1 <1>                0.0000
     65 H65          3.4737  -0.7208   2.4437 H              1 <1>                0.0000
     66 H66          3.7117  -6.0532   3.5005 H              1 <1>                0.0000
     67 H67          2.2900  -7.1142   3.6464 H              1 <1>                0.0000
     68 H68          2.9172  -6.6829   2.0374 H              1 <1>                0.0000
     69 H69         -1.2034  -6.9756  -0.0943 H              1 <1>                0.0000
     70 H70         -1.3529  -5.2366  -0.4434 H              1 <1>                0.0000
     71 H71         -0.0330  -6.1808  -1.1744 H              1 <1>                0.0000
     72 H72          0.2367  -4.1052  -1.1877 H              1 <1>                0.0000
     73 H73         -1.6950   1.4303  -2.7162 H              1 <1>                0.0000
     74 H74         -3.2131   3.4216  -1.8218 H              1 <1>                0.0000
     75 H75         -2.3826   4.7634  -0.9984 H              1 <1>                0.0000
     76 H76         -1.6442   5.6527  -3.1921 H              1 <1>                0.0000
     77 H77         -2.4747   4.3109  -4.0156 H              1 <1>                0.0000
@<TRIPOS>BOND
    1    1    2 1     
    2    1   42 1     
    3    1   43 1     
    4    1   44 1     
    5    2    3 1     
    6    3    4 2     
    7    3    5 1     
    8    5   36 1     
    9    5    6 2     
   10    6    7 1     
   11    6   45 1     
   12    7    8 1     
   13    7   35 1     
   14    8    9 1     
   15    8   46 1     
   16    8   47 1     
   17    9   10 1     
   18    9   20 1     
   19    9   48 1     
   20   10   11 1     
   21   10   49 1     
   22   10   50 1     
   23   11   19 1     
   24   11   12 1     
   25   11   51 1     
   26   12   13 1     
   27   12   52 1     
   28   12   53 1     
   29   13   18 ar    
   30   13   14 ar    
   31   14   15 ar    
   32   14   54 1     
   33   15   16 ar    
   34   15   55 1     
   35   16   17 ar    
   36   16   56 1     
   37   17   18 ar    
   38   17   57 1     
   39   18   19 1     
   40   19   58 1     
   41   19   59 1     
   42   20   21 1     
   43   20   22 1     
   44   20   60 1     
   45   21   61 1     
   46   22   34 ar    
   47   22   23 ar    
   48   23   24 ar    
   49   23   62 1     
   50   24   25 1     
   51   24   27 ar    
   52   25   26 1     
   53   26   63 1     
   54   26   64 1     
   55   26   65 1     
   56   27   28 1     
   57   27   31 ar    
   58   28   29 1     
   59   28   30 2     
   60   29   66 1     
   61   29   67 1     
   62   29   68 1     
   63   31   32 1     
   64   31   34 ar    
   65   32   33 1     
   66   33   69 1     
   67   33   70 1     
   68   33   71 1     
   69   34   72 1     
   70   35   36 2     
   71   35   73 1     
   72   36   37 1     
   73   37   38 1     
   74   37   74 1     
   75   37   75 1     
   76   38   39 1     
   77   38   76 1     
   78   38   77 1     
   79   39   40 ar    
   80   39   41 ar    
@<TRIPOS>SUBSTRUCTURE
      1 ****           1
@<TRIPOS>SET
DONOR_HYDROGENS      STATIC     ATOMS    <user>   **** ""
1 61
ATOM$RED        STATIC     ATOMS    COLORGROUP SYSTEM
1 61
