#       Name:                OP0
#       Creating user name   gbret
#       Creation time:       Fri Sep  9 13:49:59 2016


#       File generated by GOLD software.
#

@<TRIPOS>MOLECULE
OP0
    39    39     1
SMALL
NO_CHARGES


@<TRIPOS>ATOM
      1 N1          -4.8971   0.3398  -3.9314 N.4            1 <1>                0.0000
      2 H2          -5.2611  -0.5527  -3.6332 H              1 <1>                0.0000
      3 H3          -3.9096   0.2542  -4.1200 H              1 <1>                0.0000
      4 H4          -5.3752   0.6352  -4.7694 H              1 <1>                0.0000
      5 C5          -5.1086   1.3340  -2.8707 C.3            1 <1>                0.0000
      6 C6          -4.3835   0.8862  -1.6000 C.3            1 <1>                0.0000
      7 O7          -2.9738   0.8771  -1.8340 O.3            1 <1>                0.0000
      8 N8          -2.2067   0.4748  -0.7140 N.am           1 <1>                0.0000
      9 C9          -0.8627   0.4229  -0.8012 C.2            1 <1>                0.0000
     10 O10         -0.3105   0.7208  -1.8391 O.2            1 <1>                0.0000
     11 C11         -0.0462  -0.0053   0.3909 C.3            1 <1>                0.0000
     12 C12          0.4826  -1.4256   0.1677 C.3            1 <1>                0.0000
     13 C13          1.4229  -1.8017   1.3152 C.3            1 <1>                0.0000
     14 C14          2.6137  -0.8408   1.3369 C.3            1 <1>                0.0000
     15 C15          2.1090   0.5862   1.5734 C.3            1 <1>                0.0000
     16 N16          1.0959   0.9038   0.5578 N.am           1 <1>                0.0000
     17 C17          1.2119   2.0081  -0.2061 C.2            1 <1>                0.0000
     18 O18          2.2062   2.6981  -0.1274 O.2            1 <1>                0.0000
     19 N19          3.5315  -1.2218   2.4188 N.3            1 <1>                0.0000
     20 O20          4.9115  -0.8700   2.0840 O.3            1 <1>                0.0000
     21 S21          5.9225  -1.2358   3.1613 S.o2           1 <1>                0.0000
     22 O22          6.1051  -2.6773   3.0930 O.co2          1 <1>                0.0000
     23 O23          7.1469  -0.5150   2.8496 O.co2          1 <1>                0.0000
     24 O24          5.3512  -0.8174   4.4320 O.co2          1 <1>                0.0000
     25 H25         -4.7153   2.2982  -3.1928 H              1 <1>                0.0000
     26 H26         -6.1754   1.4265  -2.6669 H              1 <1>                0.0000
     27 H27         -4.6127   1.5767  -0.7884 H              1 <1>                0.0000
     28 H28         -4.7131  -0.1165  -1.3279 H              1 <1>                0.0000
     29 H29         -2.6484   0.2365   0.1161 H              1 <1>                0.0000
     30 H30         -0.6668   0.0193   1.2867 H              1 <1>                0.0000
     31 H31         -0.3532  -2.1246   0.1383 H              1 <1>                0.0000
     32 H32          1.0258  -1.4674  -0.7763 H              1 <1>                0.0000
     33 H33          0.8857  -1.7358   2.2613 H              1 <1>                0.0000
     34 H34          1.7813  -2.8210   1.1716 H              1 <1>                0.0000
     35 H35          3.1369  -0.8881   0.3819 H              1 <1>                0.0000
     36 H36          1.6656   0.6571   2.5666 H              1 <1>                0.0000
     37 H37          2.9406   1.2862   1.4914 H              1 <1>                0.0000
     38 H38          0.4195   2.2785  -0.8883 H              1 <1>                0.0000
     39 H39          3.2534  -0.8024   3.2934 H              1 <1>                0.0000
@<TRIPOS>BOND
    1    1    2 1     
    2    1    3 1     
    3    1    4 1     
    4    1    5 1     
    5    5    6 1     
    6    5   25 1     
    7    5   26 1     
    8    6    7 1     
    9    6   27 1     
   10    6   28 1     
   11    7    8 1     
   12    8    9 am    
   13    8   29 1     
   14    9   10 2     
   15    9   11 1     
   16   11   16 1     
   17   11   12 1     
   18   11   30 1     
   19   12   13 1     
   20   12   31 1     
   21   12   32 1     
   22   13   14 1     
   23   13   33 1     
   24   13   34 1     
   25   14   15 1     
   26   14   19 1     
   27   14   35 1     
   28   15   16 1     
   29   15   36 1     
   30   15   37 1     
   31   16   17 am    
   32   17   18 2     
   33   17   38 1     
   34   19   20 1     
   35   19   39 1     
   36   20   21 1     
   37   21   22 ar    
   38   21   23 ar    
   39   21   24 ar    
@<TRIPOS>SUBSTRUCTURE
      1 ****           1
@<TRIPOS>SET
DONOR_HYDROGENS      STATIC     ATOMS    <user>   **** ""
5 2 3 4 29 39
ATOM$RED        STATIC     ATOMS    COLORGROUP SYSTEM
5 2 3 4 29 39
