#       Name:                ORP
#       Creating user name   gbret
#       Creation time:       Fri Sep  9 13:52:30 2016


#       File generated by GOLD software.
#

@<TRIPOS>MOLECULE
ORP
    22    22     1
SMALL
NO_CHARGES


@<TRIPOS>ATOM
      1 O1          -0.0678   2.9142   1.7943 O.3            1 <1>                0.0000
      2 C2          -0.0484   1.4853   1.7864 C.3            1 <1>                0.0000
      3 C3          -1.4877   0.9284   1.7172 C.3            1 <1>                0.0000
      4 C4          -1.3657  -0.3151   0.8082 C.3            1 <1>                0.0000
      5 O5          -2.1683  -0.1593  -0.3638 O.3            1 <1>                0.0000
      6 C6           0.1328  -0.3623   0.4358 C.3            1 <1>                0.0000
      7 C7           0.3074  -0.8248  -1.0121 C.3            1 <1>                0.0000
      8 O8           1.6992  -0.9734  -1.3001 O.3            1 <1>                0.0000
      9 P9           2.2518  -1.4479  -2.7359 P.3            1 <1>                0.0000
     10 O10          1.8985  -0.3678  -3.8144 O.co2          1 <1>                0.0000
     11 O11          3.8067  -1.6254  -2.6645 O.co2          1 <1>                0.0000
     12 O12          1.5878  -2.8122  -3.1262 O.co2          1 <1>                0.0000
     13 O13          0.5939   0.9978   0.5883 O.3            1 <1>                0.0000
     14 H14          0.8101   3.3195   1.7881 H              1 <1>                0.0000
     15 H15          0.4638   1.1086   2.6717 H              1 <1>                0.0000
     16 H16         -1.8349   0.6430   2.7102 H              1 <1>                0.0000
     17 H17         -2.1601   1.6620   1.2726 H              1 <1>                0.0000
     18 H18         -1.6550  -1.2149   1.3512 H              1 <1>                0.0000
     19 H19         -3.1135  -0.0638  -0.1834 H              1 <1>                0.0000
     20 H20          0.6713  -1.0255   1.1128 H              1 <1>                0.0000
     21 H21         -0.1965  -1.7812  -1.1513 H              1 <1>                0.0000
     22 H22         -0.1257  -0.0845  -1.6847 H              1 <1>                0.0000
@<TRIPOS>BOND
    1    1    2 1     
    2    1   14 1     
    3    2   13 1     
    4    2    3 1     
    5    2   15 1     
    6    3    4 1     
    7    3   16 1     
    8    3   17 1     
    9    4    5 1     
   10    4    6 1     
   11    4   18 1     
   12    5   19 1     
   13    6    7 1     
   14    6   13 1     
   15    6   20 1     
   16    7    8 1     
   17    7   21 1     
   18    7   22 1     
   19    8    9 1     
   20    9   10 ar    
   21    9   11 ar    
   22    9   12 ar    
@<TRIPOS>SUBSTRUCTURE
      1 ****           1
@<TRIPOS>SET
DONOR_HYDROGENS      STATIC     ATOMS    <user>   **** ""
2 14 19
ATOM$RED        STATIC     ATOMS    COLORGROUP SYSTEM
2 14 19
