#       Name:                OSA
#       Creating user name   gbret
#       Creation time:       Fri Sep  9 13:52:41 2016


#       File generated by GOLD software.
#

@<TRIPOS>MOLECULE
OSA
    46    49     1
SMALL
NO_CHARGES


@<TRIPOS>ATOM
      1 N1          -0.1570   8.0911   0.0513 N.pl3          1 <1>                0.0000
      2 C2          -0.1381   6.6967   0.0436 C.ar           1 <1>                0.0000
      3 C3          -1.3450   5.9873   0.0455 C.ar           1 <1>                0.0000
      4 C4          -1.3543   4.6278   0.0377 C.ar           1 <1>                0.0000
      5 C5          -0.1409   3.9181   0.0275 C.ar           1 <1>                0.0000
      6 C6          -0.1261   2.5103   0.0187 C.ar           1 <1>                0.0000
      7 O7          -1.2888   1.8133   0.0198 O.3            1 <1>                0.0000
      8 C8           1.0976   1.8398   0.0084 C.ar           1 <1>                0.0000
      9 N9           1.1238   0.4787  -0.0002 N.2            1 <1>                0.0000
     10 N10          0.0192  -0.1877   0.0012 N.2            1 <1>                0.0000
     11 C11          0.0455  -1.5537  -0.0074 C.ar           1 <1>                0.0000
     12 C12          1.2807  -2.2291  -0.0120 C.ar           1 <1>                0.0000
     13 C13          1.3312  -3.5853  -0.0200 C.ar           1 <1>                0.0000
     14 C14          0.1412  -4.3345  -0.0244 C.ar           1 <1>                0.0000
     15 C15          0.1707  -5.7436  -0.0327 C.ar           1 <1>                0.0000
     16 O16          1.3580  -6.4030  -0.0365 O.3            1 <1>                0.0000
     17 C17         -1.0131  -6.4466  -0.0364 C.ar           1 <1>                0.0000
     18 C18         -2.2368  -5.7823  -0.0325 C.ar           1 <1>                0.0000
     19 C19         -2.2969  -4.4226  -0.0249 C.ar           1 <1>                0.0000
     20 C20         -1.1098  -3.6677  -0.0199 C.ar           1 <1>                0.0000
     21 C21         -1.1448  -2.2654  -0.0058 C.ar           1 <1>                0.0000
     22 S22         -3.7308  -6.7165  -0.0381 S.o2           1 <1>                0.0000
     23 O23         -4.0865  -6.9470   1.3535 O.co2          1 <1>                0.0000
     24 O24         -4.7259  -5.9119  -0.7298 O.co2          1 <1>                0.0000
     25 O25         -3.4469  -7.9575  -0.7418 O.co2          1 <1>                0.0000
     26 C26          2.3059   2.5637   0.0063 C.ar           1 <1>                0.0000
     27 C27          2.3047   3.9192   0.0146 C.ar           1 <1>                0.0000
     28 C28          1.0863   4.6278   0.0256 C.ar           1 <1>                0.0000
     29 C29          1.0695   6.0303   0.0285 C.ar           1 <1>                0.0000
     30 S30          3.8392   1.6957  -0.0068 S.o2           1 <1>                0.0000
     31 O31          4.1970   1.4972  -1.4027 O.co2          1 <1>                0.0000
     32 O32          4.8021   2.5348   0.6896 O.co2          1 <1>                0.0000
     33 O33          3.6136   0.4353   0.6835 O.co2          1 <1>                0.0000
     34 H34          0.6763   8.5874   0.0460 H              1 <1>                0.0000
     35 H35         -1.0036   8.5646   0.0578 H              1 <1>                0.0000
     36 H36         -2.2806   6.5268   0.0536 H              1 <1>                0.0000
     37 H37         -2.2929   4.0936   0.0396 H              1 <1>                0.0000
     38 H38         -1.6302   1.6165  -0.8632 H              1 <1>                0.0000
     39 H39          2.1992  -1.6611  -0.0094 H              1 <1>                0.0000
     40 H40          2.2862  -4.0896  -0.0234 H              1 <1>                0.0000
     41 H41          1.7018  -6.5991   0.8458 H              1 <1>                0.0000
     42 H42         -0.9922  -7.5264  -0.0427 H              1 <1>                0.0000
     43 H43         -3.2548  -3.9238  -0.0227 H              1 <1>                0.0000
     44 H44         -2.0908  -1.7443   0.0011 H              1 <1>                0.0000
     45 H45          3.2406   4.4582   0.0133 H              1 <1>                0.0000
     46 H46          1.9963   6.5848   0.0226 H              1 <1>                0.0000
@<TRIPOS>BOND
    1    1    2 1     
    2    1   34 1     
    3    1   35 1     
    4    2   29 ar    
    5    2    3 ar    
    6    3    4 ar    
    7    3   36 1     
    8    4    5 ar    
    9    4   37 1     
   10    5   28 ar    
   11    5    6 ar    
   12    6    7 1     
   13    6    8 ar    
   14    7   38 1     
   15    8    9 1     
   16    8   26 ar    
   17    9   10 2     
   18   10   11 1     
   19   11   21 ar    
   20   11   12 ar    
   21   12   13 ar    
   22   12   39 1     
   23   13   14 ar    
   24   13   40 1     
   25   14   20 ar    
   26   14   15 ar    
   27   15   16 1     
   28   15   17 ar    
   29   16   41 1     
   30   17   18 ar    
   31   17   42 1     
   32   18   19 ar    
   33   18   22 1     
   34   19   20 ar    
   35   19   43 1     
   36   20   21 ar    
   37   21   44 1     
   38   22   23 ar    
   39   22   24 ar    
   40   22   25 ar    
   41   26   27 ar    
   42   26   30 1     
   43   27   28 ar    
   44   27   45 1     
   45   28   29 ar    
   46   29   46 1     
   47   30   31 ar    
   48   30   32 ar    
   49   30   33 ar    
@<TRIPOS>SUBSTRUCTURE
      1 ****           1
@<TRIPOS>SET
DONOR_HYDROGENS      STATIC     ATOMS    <user>   **** ""
4 34 35 38 41
ATOM$RED        STATIC     ATOMS    COLORGROUP SYSTEM
4 34 35 38 41
