#       Name:                OX1
#       Creating user name   gbret
#       Creation time:       Fri Sep  9 13:55:17 2016


#       File generated by GOLD software.
#

@<TRIPOS>MOLECULE
OX1
    37    40     1
SMALL
NO_CHARGES


@<TRIPOS>ATOM
      1 C1           0.3479   3.4598  -0.4668 C.3            1 <1>                0.0000
      2 C2           0.3723   1.9301  -0.4813 C.3            1 <1>                0.0000
      3 O3           0.8357   1.3580  -1.7338 O.3            1 <1>                0.0000
      4 O4           0.8509  -0.1152  -1.7452 O.3            1 <1>                0.0000
      5 C5           0.3996  -0.7163  -0.5019 C.3            1 <1>                0.0000
      6 C6           0.4068  -2.2462  -0.5114 C.3            1 <1>                0.0000
      7 C7          -0.4192  -2.7528  -1.6955 C.3            1 <1>                0.0000
      8 C8          -0.5188  -4.2552  -1.6324 C.2            1 <1>                0.0000
      9 O9           0.0208  -4.8643  -0.7245 O.co2          1 <1>                0.0000
     10 O10         -1.1391  -4.8615  -2.4892 O.co2          1 <1>                0.0000
     11 C11          1.3007  -0.1003   0.5587 C.ar           1 <1>                0.0000
     12 C12          2.0638  -0.8072   1.4426 C.ar           1 <1>                0.0000
     13 C13          2.8412  -0.1121   2.3601 C.ar           1 <1>                0.0000
     14 C14          2.8396   1.2706   2.3748 C.ar           1 <1>                0.0000
     15 C15          2.0605   1.9834   1.4725 C.ar           1 <1>                0.0000
     16 C16          1.2863   1.3164   0.5695 C.ar           1 <1>                0.0000
     17 C17         -0.9753  -0.1058  -0.2704 C.ar           1 <1>                0.0000
     18 C18         -2.1251  -0.8178  -0.0835 C.ar           1 <1>                0.0000
     19 C19         -3.3135  -0.1275   0.1176 C.ar           1 <1>                0.0000
     20 C20         -3.3279   1.2551   0.1277 C.ar           1 <1>                0.0000
     21 C21         -2.1542   1.9728  -0.0634 C.ar           1 <1>                0.0000
     22 C22         -0.9867   1.2877  -0.2426 C.ar           1 <1>                0.0000
     23 H23          1.3522   3.8410  -0.6516 H              1 <1>                0.0000
     24 H24         -0.3261   3.8198  -1.2442 H              1 <1>                0.0000
     25 H25          0.0001   3.8085   0.5056 H              1 <1>                0.0000
     26 H26          1.4321  -2.6042  -0.6041 H              1 <1>                0.0000
     27 H27         -0.0250  -2.6174   0.4181 H              1 <1>                0.0000
     28 H28         -1.4188  -2.3203  -1.6527 H              1 <1>                0.0000
     29 H29          0.0640  -2.4595  -2.6275 H              1 <1>                0.0000
     30 H30          2.0629  -1.8871   1.4291 H              1 <1>                0.0000
     31 H31          3.4508  -0.6552   3.0670 H              1 <1>                0.0000
     32 H32          3.4482   1.7999   3.0930 H              1 <1>                0.0000
     33 H33          2.0571   3.0633   1.4821 H              1 <1>                0.0000
     34 H34         -2.1109  -1.8977  -0.0922 H              1 <1>                0.0000
     35 H35         -4.2327  -0.6745   0.2668 H              1 <1>                0.0000
     36 H36         -4.2582   1.7805   0.2848 H              1 <1>                0.0000
     37 H37         -2.1626   3.0527  -0.0563 H              1 <1>                0.0000
@<TRIPOS>BOND
    1    1    2 1     
    2    1   23 1     
    3    1   24 1     
    4    1   25 1     
    5    2   16 1     
    6    2   22 1     
    7    2    3 1     
    8    3    4 1     
    9    4    5 1     
   10    5    6 1     
   11    5   11 1     
   12    5   17 1     
   13    6    7 1     
   14    6   26 1     
   15    6   27 1     
   16    7    8 1     
   17    7   28 1     
   18    7   29 1     
   19    8    9 ar    
   20    8   10 ar    
   21   11   16 ar    
   22   11   12 ar    
   23   12   13 ar    
   24   12   30 1     
   25   13   14 ar    
   26   13   31 1     
   27   14   15 ar    
   28   14   32 1     
   29   15   16 ar    
   30   15   33 1     
   31   17   22 ar    
   32   17   18 ar    
   33   18   19 ar    
   34   18   34 1     
   35   19   20 ar    
   36   19   35 1     
   37   20   21 ar    
   38   20   36 1     
   39   21   22 ar    
   40   21   37 1     
@<TRIPOS>SUBSTRUCTURE
      1 ****           1
