#       Name:                P11
#       Creating user name   gbret
#       Creation time:       Fri Sep  9 13:59:11 2016


#       File generated by GOLD software.
#

@<TRIPOS>MOLECULE
P11
   124   128     1
SMALL
NO_CHARGES


@<TRIPOS>ATOM
      1 C1           5.4114  -7.0318  16.8433 C.3            1 <1>                0.0000
      2 N2           5.7343  -5.7773  17.5363 N.4            1 <1>                0.0000
      3 H3           4.8911  -5.2391  17.6678 H              1 <1>                0.0000
      4 C4           6.3311  -6.0799  18.8440 C.3            1 <1>                0.0000
      5 C5           6.6881  -5.0040  16.7299 C.3            1 <1>                0.0000
      6 C6           6.0228  -4.5822  15.4183 C.3            1 <1>                0.0000
      7 C7           7.0162  -3.7768  14.5785 C.3            1 <1>                0.0000
      8 N8           6.3792  -3.3729  13.3226 N.am           1 <1>                0.0000
      9 C9           7.0694  -2.6492  12.4191 C.2            1 <1>                0.0000
     10 O10          8.2179  -2.3322  12.6458 O.2            1 <1>                0.0000
     11 C11          6.4141  -2.2337  11.1272 C.3            1 <1>                0.0000
     12 C12          7.4075  -1.4283  10.2874 C.3            1 <1>                0.0000
     13 N13          6.7704  -1.0244   9.0315 N.am           1 <1>                0.0000
     14 C14          7.4606  -0.3007   8.1281 C.2            1 <1>                0.0000
     15 O15          8.5801   0.0962   8.3935 O.2            1 <1>                0.0000
     16 C16          6.8627   0.0086   6.8251 C.2            1 <1>                0.0000
     17 C17          5.5744  -0.2849   6.4307 C.2            1 <1>                0.0000
     18 C18          5.4271   0.1867   5.1183 C.2            1 <1>                0.0000
     19 N19          4.2664   0.0953   4.3298 N.am           1 <1>                0.0000
     20 C20          3.1588  -0.4902   4.8265 C.2            1 <1>                0.0000
     21 O21          3.1631  -0.9397   5.9569 O.2            1 <1>                0.0000
     22 C22          1.9430  -0.5859   4.0006 C.2            1 <1>                0.0000
     23 N23          1.8140  -0.1450   2.7660 N.pl3          1 <1>                0.0000
     24 H24          2.5076   0.2974   2.2521 H              1 <1>                0.0000
     25 C25          0.5787  -0.4030   2.3345 C.2            1 <1>                0.0000
     26 N26          0.0664  -0.0827   1.0679 N.am           1 <1>                0.0000
     27 C27         -1.2055  -0.4008   0.7553 C.2            1 <1>                0.0000
     28 O28         -1.9073  -0.9639   1.5688 O.2            1 <1>                0.0000
     29 C29         -1.7557  -0.0568  -0.6048 C.3            1 <1>                0.0000
     30 C30         -3.2097  -0.5236  -0.6997 C.3            1 <1>                0.0000
     31 N31         -3.7446  -0.1892  -2.0219 N.am           1 <1>                0.0000
     32 C32         -5.0164  -0.5072  -2.3345 C.2            1 <1>                0.0000
     33 O33         -5.7201  -1.0718  -1.5189 O.2            1 <1>                0.0000
     34 C34         -5.5543  -0.1710  -3.6641 C.2            1 <1>                0.0000
     35 N35         -4.8945   0.4317  -4.6318 N.pl3          1 <1>                0.0000
     36 H36         -3.9718   0.7270  -4.5835 H              1 <1>                0.0000
     37 C37         -5.6956   0.5712  -5.6886 C.2            1 <1>                0.0000
     38 N38         -5.3483   1.1664  -6.9111 N.am           1 <1>                0.0000
     39 C39         -6.2557   1.2444  -7.9046 C.2            1 <1>                0.0000
     40 O40         -7.3726   0.8001  -7.7420 O.2            1 <1>                0.0000
     41 C41         -5.8827   1.8835  -9.2173 C.3            1 <1>                0.0000
     42 C42         -7.0841   1.8430 -10.1639 C.3            1 <1>                0.0000
     43 N43         -6.7215   2.4643 -11.4401 N.am           1 <1>                0.0000
     44 C44         -7.6290   2.5423 -12.4335 C.2            1 <1>                0.0000
     45 O45         -8.7751   2.1814 -12.2404 O.2            1 <1>                0.0000
     46 C46         -7.2353   3.0621 -13.7472 C.2            1 <1>                0.0000
     47 C47         -6.0061   3.5928 -14.0772 C.2            1 <1>                0.0000
     48 C48         -6.0657   3.9621 -15.4288 C.2            1 <1>                0.0000
     49 N49         -5.0267   4.5453 -16.1755 N.am           1 <1>                0.0000
     50 C50         -3.8379   4.7981 -15.5929 C.2            1 <1>                0.0000
     51 O51         -3.6638   4.5217 -14.4212 O.2            1 <1>                0.0000
     52 C52         -2.7490   5.4094 -16.3755 C.2            1 <1>                0.0000
     53 N53         -2.8127   5.7587 -17.6428 N.2            1 <1>                0.0000
     54 C54         -1.6444   6.2778 -18.0134 C.2            1 <1>                0.0000
     55 C55         -0.8097   6.2578 -16.9455 C.2            1 <1>                0.0000
     56 N56         -1.5018   5.7160 -15.9080 N.pl3          1 <1>                0.0000
     57 C57         -1.0025   5.4955 -14.5485 C.3            1 <1>                0.0000
     58 C58         -7.3078   3.6548 -15.8878 C.2            1 <1>                0.0000
     59 N59         -8.0240   3.1026 -14.8741 N.pl3          1 <1>                0.0000
     60 C60         -9.4097   2.6357 -14.9635 C.3            1 <1>                0.0000
     61 C61         -6.9087   0.0362  -5.3776 C.2            1 <1>                0.0000
     62 N62         -6.8200  -0.4368  -4.1042 N.pl3          1 <1>                0.0000
     63 C63         -7.8842  -1.0985  -3.3455 C.3            1 <1>                0.0000
     64 C64         -0.0995  -1.0312   3.3342 C.2            1 <1>                0.0000
     65 N65          0.7601  -1.1523   4.3831 N.pl3          1 <1>                0.0000
     66 C66          0.4688  -1.7667   5.6807 C.3            1 <1>                0.0000
     67 C67          6.6074   0.7484   4.7451 C.2            1 <1>                0.0000
     68 N68          7.4844   0.6495   5.7779 N.pl3          1 <1>                0.0000
     69 C69          8.8661   1.1363   5.7742 C.3            1 <1>                0.0000
     70 H70          4.7037  -7.6056  17.4416 H              1 <1>                0.0000
     71 H71          4.9687  -6.8072  15.8729 H              1 <1>                0.0000
     72 H72          6.3224  -7.6132  16.7012 H              1 <1>                0.0000
     73 H73          7.2420  -6.6614  18.7020 H              1 <1>                0.0000
     74 H74          6.5707  -5.1492  19.3582 H              1 <1>                0.0000
     75 H75          5.6233  -6.6537  19.4423 H              1 <1>                0.0000
     76 H76          6.9958  -4.1166  17.2830 H              1 <1>                0.0000
     77 H77          7.5622  -5.6181  16.5129 H              1 <1>                0.0000
     78 H78          5.7151  -5.4696  14.8652 H              1 <1>                0.0000
     79 H79          5.1488  -3.9681  15.6353 H              1 <1>                0.0000
     80 H80          7.3239  -2.8894  15.1316 H              1 <1>                0.0000
     81 H81          7.8902  -4.3908  14.3615 H              1 <1>                0.0000
     82 H82          5.4606  -3.6264  13.1413 H              1 <1>                0.0000
     83 H83          6.1064  -3.1211  10.5741 H              1 <1>                0.0000
     84 H84          5.5400  -1.6196  11.3442 H              1 <1>                0.0000
     85 H85          7.7152  -0.5409  10.8405 H              1 <1>                0.0000
     86 H86          8.2815  -2.0423  10.0704 H              1 <1>                0.0000
     87 H87          5.8518  -1.2779   8.8502 H              1 <1>                0.0000
     88 H88          4.8207  -0.7844   7.0214 H              1 <1>                0.0000
     89 H89          4.2630   0.4538   3.4285 H              1 <1>                0.0000
     90 H90          0.6276   0.3676   0.4174 H              1 <1>                0.0000
     91 H91         -1.7100   1.0221  -0.7530 H              1 <1>                0.0000
     92 H92         -1.1635  -0.5544  -1.3728 H              1 <1>                0.0000
     93 H93         -3.2553  -1.6025  -0.5515 H              1 <1>                0.0000
     94 H94         -3.8019  -0.0260   0.0683 H              1 <1>                0.0000
     95 H95         -3.1834   0.2611  -2.6725 H              1 <1>                0.0000
     96 H96         -4.4551   1.5216  -7.0411 H              1 <1>                0.0000
     97 H97         -5.5893   2.9193  -9.0468 H              1 <1>                0.0000
     98 H98         -5.0504   1.3388  -9.6631 H              1 <1>                0.0000
     99 H99         -7.3775   0.8072 -10.3344 H              1 <1>                0.0000
    100 H100        -7.9164   2.3877  -9.7181 H              1 <1>                0.0000
    101 H101        -5.8283   2.8196 -11.5701 H              1 <1>                0.0000
    102 H102        -5.1574   3.7037 -13.4186 H              1 <1>                0.0000
    103 H103        -5.1655   4.7657 -17.1098 H              1 <1>                0.0000
    104 H104        -1.4027   6.6514 -18.9974 H              1 <1>                0.0000
    105 H105         0.2112   6.6093 -16.9222 H              1 <1>                0.0000
    106 H106        -1.2042   6.3771 -13.9399 H              1 <1>                0.0000
    107 H107        -1.5038   4.6311 -14.1131 H              1 <1>                0.0000
    108 H108         0.0718   5.3144 -14.5808 H              1 <1>                0.0000
    109 H109        -7.6650   3.8188 -16.8937 H              1 <1>                0.0000
    110 H110        -9.4200   1.5640 -15.1621 H              1 <1>                0.0000
    111 H111        -9.9219   2.8358 -14.0223 H              1 <1>                0.0000
    112 H112        -9.9183   3.1600 -15.7725 H              1 <1>                0.0000
    113 H113        -7.7753  -0.0081  -6.0205 H              1 <1>                0.0000
    114 H114        -7.8385  -2.1739  -3.5178 H              1 <1>                0.0000
    115 H115        -7.7533  -0.8950  -2.2827 H              1 <1>                0.0000
    116 H116        -8.8527  -0.7192  -3.6715 H              1 <1>                0.0000
    117 H117        -1.1237  -1.3722   3.3001 H              1 <1>                0.0000
    118 H118         0.7083  -2.8294   5.6415 H              1 <1>                0.0000
    119 H119         1.0700  -1.2870   6.4531 H              1 <1>                0.0000
    120 H120        -0.5888  -1.6410   5.9130 H              1 <1>                0.0000
    121 H121         6.8129   1.2023   3.7869 H              1 <1>                0.0000
    122 H122         8.9025   2.1296   6.2216 H              1 <1>                0.0000
    123 H123         9.4928   0.4552   6.3500 H              1 <1>                0.0000
    124 H124         9.2310   1.1863   4.7483 H              1 <1>                0.0000
@<TRIPOS>BOND
    1    1    2 1     
    2    1   70 1     
    3    1   71 1     
    4    1   72 1     
    5    2    3 1     
    6    2    4 1     
    7    2    5 1     
    8    4   73 1     
    9    4   74 1     
   10    4   75 1     
   11    5    6 1     
   12    5   76 1     
   13    5   77 1     
   14    6    7 1     
   15    6   78 1     
   16    6   79 1     
   17    7    8 1     
   18    7   80 1     
   19    7   81 1     
   20    8    9 am    
   21    8   82 1     
   22    9   10 2     
   23    9   11 1     
   24   11   12 1     
   25   11   83 1     
   26   11   84 1     
   27   12   13 1     
   28   12   85 1     
   29   12   86 1     
   30   13   14 am    
   31   13   87 1     
   32   14   15 2     
   33   14   16 1     
   34   16   68 1     
   35   16   17 2     
   36   17   18 1     
   37   17   88 1     
   38   18   19 1     
   39   18   67 2     
   40   19   20 am    
   41   19   89 1     
   42   20   21 2     
   43   20   22 1     
   44   22   65 2     
   45   22   23 1     
   46   23   24 1     
   47   23   25 1     
   48   25   26 1     
   49   25   64 2     
   50   26   27 am    
   51   26   90 1     
   52   27   28 2     
   53   27   29 1     
   54   29   30 1     
   55   29   91 1     
   56   29   92 1     
   57   30   31 1     
   58   30   93 1     
   59   30   94 1     
   60   31   32 am    
   61   31   95 1     
   62   32   33 2     
   63   32   34 1     
   64   34   62 2     
   65   34   35 1     
   66   35   36 1     
   67   35   37 1     
   68   37   38 1     
   69   37   61 2     
   70   38   39 am    
   71   38   96 1     
   72   39   40 2     
   73   39   41 1     
   74   41   42 1     
   75   41   97 1     
   76   41   98 1     
   77   42   43 1     
   78   42   99 1     
   79   42  100 1     
   80   43   44 am    
   81   43  101 1     
   82   44   45 2     
   83   44   46 1     
   84   46   59 1     
   85   46   47 2     
   86   47   48 1     
   87   47  102 1     
   88   48   49 1     
   89   48   58 2     
   90   49   50 am    
   91   49  103 1     
   92   50   51 2     
   93   50   52 1     
   94   52   56 1     
   95   52   53 2     
   96   53   54 1     
   97   54   55 2     
   98   54  104 1     
   99   55   56 1     
  100   55  105 1     
  101   56   57 1     
  102   57  106 1     
  103   57  107 1     
  104   57  108 1     
  105   58   59 1     
  106   58  109 1     
  107   59   60 1     
  108   60  110 1     
  109   60  111 1     
  110   60  112 1     
  111   61   62 1     
  112   61  113 1     
  113   62   63 1     
  114   63  114 1     
  115   63  115 1     
  116   63  116 1     
  117   64   65 1     
  118   64  117 1     
  119   65   66 1     
  120   66  118 1     
  121   66  119 1     
  122   66  120 1     
  123   67   68 1     
  124   67  121 1     
  125   68   69 1     
  126   69  122 1     
  127   69  123 1     
  128   69  124 1     
@<TRIPOS>SUBSTRUCTURE
      1 ****           1
@<TRIPOS>SET
DONOR_HYDROGENS      STATIC     ATOMS    <user>   **** ""
11 3 82 87 89 24 90 95 36 96 101 103
ATOM$RED        STATIC     ATOMS    COLORGROUP SYSTEM
11 3 82 87 89 24 90 95 36 96 101 103
