#       Name:                P1A
#       Creating user name   gbret
#       Creation time:       Fri Sep  9 13:59:51 2016


#       File generated by GOLD software.
#

@<TRIPOS>MOLECULE
P1A
    77    80     1
SMALL
NO_CHARGES


@<TRIPOS>ATOM
      1 C1           4.4840  -2.7769   4.4131 C.3            1 <1>                0.0000
      2 C2           4.5255  -1.4346   3.6801 C.3            1 <1>                0.0000
      3 C3           5.3123  -1.5892   2.3770 C.3            1 <1>                0.0000
      4 C4           3.0987  -0.9820   3.3637 C.3            1 <1>                0.0000
      5 C5           3.1329   0.4162   2.7432 C.3            1 <1>                0.0000
      6 C6           1.7060   0.8688   2.4269 C.3            1 <1>                0.0000
      7 O7           0.9712   1.0132   3.6439 O.3            1 <1>                0.0000
      8 C8           1.7475   2.2111   1.6938 C.3            1 <1>                0.0000
      9 C9           2.3367   3.2788   2.6178 C.3            1 <1>                0.0000
     10 O10          2.5612   2.0908   0.5253 O.3            1 <1>                0.0000
     11 C11          0.3286   2.6146   1.2879 C.3            1 <1>                0.0000
     12 C12          0.3677   3.8413   0.3395 C.3            1 <1>                0.0000
     13 C13         -0.3666   3.4110  -0.9618 C.3            1 <1>                0.0000
     14 C14         -1.2783   2.2811  -0.4774 C.3            1 <1>                0.0000
     15 O15         -2.3978   2.8059   0.2391 O.3            1 <1>                0.0000
     16 C16         -1.7170   1.2839  -1.5115 C.2            1 <1>                0.0000
     17 C17         -1.5331   1.5444  -2.8009 C.2            1 <1>                0.0000
     18 C18         -1.9742   0.5801  -3.8164 C.2            1 <1>                0.0000
     19 O19         -1.5155   0.5780  -4.9396 O.2            1 <1>                0.0000
     20 C20         -3.0342  -0.4127  -3.3832 C.3            1 <1>                0.0000
     21 C21         -3.1596  -1.5103  -4.4414 C.3            1 <1>                0.0000
     22 C22         -4.1862  -2.5464  -3.9778 C.3            1 <1>                0.0000
     23 O23         -4.3037  -3.5742  -4.9637 O.3            1 <1>                0.0000
     24 C24         -3.7314  -3.1609  -2.6528 C.3            1 <1>                0.0000
     25 O25         -2.4655  -3.7988  -2.8336 O.3            1 <1>                0.0000
     26 C26         -3.6019  -2.0616  -1.5959 C.3            1 <1>                0.0000
     27 C27         -2.5753  -1.0282  -2.0625 C.3            1 <1>                0.0000
     28 C28         -1.2391  -1.7370  -2.2922 C.3            1 <1>                0.0000
     29 C29         -2.3630   0.0268  -0.9917 C.3            1 <1>                0.0000
     30 C30         -1.5790  -0.5796   0.1715 C.3            1 <1>                0.0000
     31 C31         -1.1573   0.4783   1.2032 C.3            1 <1>                0.0000
     32 C32         -0.3233   1.5073   0.4744 C.3            1 <1>                0.0000
     33 C33          0.7390   0.7998  -0.3693 C.3            1 <1>                0.0000
     34 H34          5.5006  -3.0994   4.6385 H              1 <1>                0.0000
     35 H35          3.9235  -2.6668   5.3415 H              1 <1>                0.0000
     36 H36          3.9985  -3.5209   3.7816 H              1 <1>                0.0000
     37 H37          5.0111  -0.6906   4.3116 H              1 <1>                0.0000
     38 H38          5.3418  -0.6329   1.8548 H              1 <1>                0.0000
     39 H39          6.3288  -1.9116   2.6024 H              1 <1>                0.0000
     40 H40          4.8267  -2.3332   1.7455 H              1 <1>                0.0000
     41 H41          2.6433  -1.6801   2.6613 H              1 <1>                0.0000
     42 H42          2.5131  -0.9574   4.2827 H              1 <1>                0.0000
     43 H43          3.5882   1.1143   3.4456 H              1 <1>                0.0000
     44 H44          3.7185   0.3916   1.8242 H              1 <1>                0.0000
     45 H45          1.2204   0.1248   1.7953 H              1 <1>                0.0000
     46 H46          1.3936   1.5935   4.2919 H              1 <1>                0.0000
     47 H47          3.3751   3.0335   2.8407 H              1 <1>                0.0000
     48 H48          2.2904   4.2505   2.1262 H              1 <1>                0.0000
     49 H49          1.7644   3.3130   3.5449 H              1 <1>                0.0000
     50 H50          2.5732   1.2021   0.1442 H              1 <1>                0.0000
     51 H51         -0.2688   2.8366   2.1722 H              1 <1>                0.0000
     52 H52         -0.1470   4.6856   0.7981 H              1 <1>                0.0000
     53 H53          1.4005   4.1085   0.1156 H              1 <1>                0.0000
     54 H54         -0.9544   4.2359  -1.3644 H              1 <1>                0.0000
     55 H55          0.3436   3.0437  -1.7026 H              1 <1>                0.0000
     56 H56         -2.9659   3.3844  -0.2878 H              1 <1>                0.0000
     57 H57         -1.0589   2.4666  -3.1026 H              1 <1>                0.0000
     58 H58         -3.9881   0.0964  -3.2458 H              1 <1>                0.0000
     59 H59         -3.4863  -1.0712  -5.3840 H              1 <1>                0.0000
     60 H60         -2.1926  -1.9936  -4.5806 H              1 <1>                0.0000
     61 H61         -5.1534  -2.0629  -3.8405 H              1 <1>                0.0000
     62 H62         -4.9388  -4.2669  -4.7360 H              1 <1>                0.0000
     63 H63         -4.4649  -3.8966  -2.3230 H              1 <1>                0.0000
     64 H64         -2.4732  -4.5090  -3.4899 H              1 <1>                0.0000
     65 H65         -4.5679  -1.5767  -1.4552 H              1 <1>                0.0000
     66 H66         -3.2739  -2.5001  -0.6534 H              1 <1>                0.0000
     67 H67         -1.2968  -2.3354  -3.2015 H              1 <1>                0.0000
     68 H68         -0.4472  -0.9951  -2.3952 H              1 <1>                0.0000
     69 H69         -1.0212  -2.3856  -1.4437 H              1 <1>                0.0000
     70 H70         -3.3432   0.2983  -0.5997 H              1 <1>                0.0000
     71 H71         -2.2002  -1.3270   0.6651 H              1 <1>                0.0000
     72 H72         -0.6861  -1.0672  -0.2200 H              1 <1>                0.0000
     73 H73         -2.0408   0.9522   1.6310 H              1 <1>                0.0000
     74 H74         -0.5663   0.0126   1.9919 H              1 <1>                0.0000
     75 H75          0.2517   0.1738  -1.1168 H              1 <1>                0.0000
     76 H76          1.3615   1.5430  -0.8677 H              1 <1>                0.0000
     77 H77          1.3607   0.1786   0.2754 H              1 <1>                0.0000
@<TRIPOS>BOND
    1    1    2 1     
    2    1   34 1     
    3    1   35 1     
    4    1   36 1     
    5    2    3 1     
    6    2    4 1     
    7    2   37 1     
    8    3   38 1     
    9    3   39 1     
   10    3   40 1     
   11    4    5 1     
   12    4   41 1     
   13    4   42 1     
   14    5    6 1     
   15    5   43 1     
   16    5   44 1     
   17    6    7 1     
   18    6    8 1     
   19    6   45 1     
   20    7   46 1     
   21    8    9 1     
   22    8   10 1     
   23    8   11 1     
   24    9   47 1     
   25    9   48 1     
   26    9   49 1     
   27   10   50 1     
   28   11   32 1     
   29   11   12 1     
   30   11   51 1     
   31   12   13 1     
   32   12   52 1     
   33   12   53 1     
   34   13   14 1     
   35   13   54 1     
   36   13   55 1     
   37   14   32 1     
   38   14   15 1     
   39   14   16 1     
   40   15   56 1     
   41   16   29 1     
   42   16   17 2     
   43   17   18 1     
   44   17   57 1     
   45   18   19 2     
   46   18   20 1     
   47   20   27 1     
   48   20   21 1     
   49   20   58 1     
   50   21   22 1     
   51   21   59 1     
   52   21   60 1     
   53   22   23 1     
   54   22   24 1     
   55   22   61 1     
   56   23   62 1     
   57   24   25 1     
   58   24   26 1     
   59   24   63 1     
   60   25   64 1     
   61   26   27 1     
   62   26   65 1     
   63   26   66 1     
   64   27   28 1     
   65   27   29 1     
   66   28   67 1     
   67   28   68 1     
   68   28   69 1     
   69   29   30 1     
   70   29   70 1     
   71   30   31 1     
   72   30   71 1     
   73   30   72 1     
   74   31   32 1     
   75   31   73 1     
   76   31   74 1     
   77   32   33 1     
   78   33   75 1     
   79   33   76 1     
   80   33   77 1     
@<TRIPOS>SUBSTRUCTURE
      1 ****           1
@<TRIPOS>SET
DONOR_HYDROGENS      STATIC     ATOMS    <user>   **** ""
5 46 50 56 62 64
ATOM$RED        STATIC     ATOMS    COLORGROUP SYSTEM
5 46 50 56 62 64
