#       Name:                P4F
#       Creating user name   gbret
#       Creation time:       Fri Sep  9 14:05:41 2016


#       File generated by GOLD software.
#

@<TRIPOS>MOLECULE
P4F
    21    20     1
SMALL
NO_CHARGES


@<TRIPOS>ATOM
      1 N1           0.0083   0.9364  -2.0578 N.4            1 <1>                0.0000
      2 H2           0.0220  -0.0725  -2.0634 H              1 <1>                0.0000
      3 H3           0.9549   1.2857  -2.0650 H              1 <1>                0.0000
      4 H4          -0.4797   1.2707  -2.8753 H              1 <1>                0.0000
      5 C5          -0.6793   1.4102  -0.8492 C.3            1 <1>                0.0000
      6 C6           0.0607   0.9033   0.3903 C.3            1 <1>                0.0000
      7 C7          -0.0247  -0.6002   0.4465 C.2            1 <1>                0.0000
      8 O8          -0.6163  -1.2040  -0.4158 O.2            1 <1>                0.0000
      9 C9           0.6283  -1.3502   1.5789 C.3            1 <1>                0.0000
     10 F10          2.0028  -1.0894   1.5796 F              1 <1>                0.0000
     11 F11          0.0742  -0.9345   2.7943 F              1 <1>                0.0000
     12 P12          0.3492  -3.1388   1.3639 P.3            1 <1>                0.0000
     13 O13          0.8555  -3.5799  -0.0516 O.co2          1 <1>                0.0000
     14 O14          1.1338  -3.9262   2.4679 O.co2          1 <1>                0.0000
     15 O15         -1.1815  -3.4475   1.4906 O.co2          1 <1>                0.0000
     16 C16         -0.6997   2.9170  -0.8409 C.2            1 <1>                0.0000
     17 O17         -1.3789   3.5130  -0.0223 O.co2          1 <1>                0.0000
     18 O18         -0.0371   3.5401  -1.6528 O.co2          1 <1>                0.0000
     19 H19         -1.7019   1.0329  -0.8415 H              1 <1>                0.0000
     20 H20          1.1065   1.2062   0.3383 H              1 <1>                0.0000
     21 H21         -0.3962   1.3269   1.2847 H              1 <1>                0.0000
@<TRIPOS>BOND
    1    1    2 1     
    2    1    3 1     
    3    1    4 1     
    4    1    5 1     
    5    5    6 1     
    6    5   16 1     
    7    5   19 1     
    8    6    7 1     
    9    6   20 1     
   10    6   21 1     
   11    7    8 2     
   12    7    9 1     
   13    9   10 1     
   14    9   11 1     
   15    9   12 1     
   16   12   13 ar    
   17   12   14 ar    
   18   12   15 ar    
   19   16   17 ar    
   20   16   18 ar    
@<TRIPOS>SUBSTRUCTURE
      1 ****           1
@<TRIPOS>SET
DONOR_HYDROGENS      STATIC     ATOMS    <user>   **** ""
3 2 3 4
ATOM$RED        STATIC     ATOMS    COLORGROUP SYSTEM
3 2 3 4
