#       Name:                P61
#       Creating user name   gbret
#       Creation time:       Fri Sep  9 14:07:11 2016


#       File generated by GOLD software.
#

@<TRIPOS>MOLECULE
P61
    44    45     1
SMALL
NO_CHARGES


@<TRIPOS>ATOM
      1 C1           2.7688   4.1117   0.9034 C.3            1 <1>                0.0000
      2 C2           2.7899   2.6049   0.8924 C.2            1 <1>                0.0000
      3 C3           1.6190   1.9149   0.8979 C.2            1 <1>                0.0000
      4 O4           0.4308   2.5755   0.9132 O.3            1 <1>                0.0000
      5 C5           1.6524   0.4989   0.8869 C.2            1 <1>                0.0000
      6 C6           0.4540  -0.2510   0.8917 C.2            1 <1>                0.0000
      7 N7          -0.7077   0.3658   0.9065 N.2            1 <1>                0.0000
      8 C8          -1.8341  -0.3349   0.8063 C.2            1 <1>                0.0000
      9 C9          -3.1579   0.3776   0.7020 C.3            1 <1>                0.0000
     10 C10         -3.7746   0.0972  -0.6442 C.ar           1 <1>                0.0000
     11 C11         -3.4993   0.9268  -1.7155 C.ar           1 <1>                0.0000
     12 C12         -4.0630   0.6727  -2.9513 C.ar           1 <1>                0.0000
     13 C13         -4.9056  -0.4159  -3.1177 C.ar           1 <1>                0.0000
     14 O14         -5.4609  -0.6679  -4.3328 O.3            1 <1>                0.0000
     15 C15         -5.1809  -1.2487  -2.0406 C.ar           1 <1>                0.0000
     16 F16         -6.0014  -2.3104  -2.1988 F              1 <1>                0.0000
     17 C17         -4.6100  -0.9923  -0.8069 C.ar           1 <1>                0.0000
     18 C18         -1.7900  -1.7235   0.7979 C.2            1 <1>                0.0000
     19 O19         -1.9647  -2.4057   1.9364 O.co2          1 <1>                0.0000
     20 O20         -1.5729  -2.3794  -0.3488 O.co2          1 <1>                0.0000
     21 C21          2.9078  -0.1486   0.8706 C.2            1 <1>                0.0000
     22 C22          2.9879  -1.6534   0.8581 C.3            1 <1>                0.0000
     23 O23          4.3585  -2.0573   0.8427 O.3            1 <1>                0.0000
     24 P24          4.8178  -3.6004   0.8265 P.3            1 <1>                0.0000
     25 O25          4.3565  -4.2685  -0.5134 O.co2          1 <1>                0.0000
     26 O26          6.3781  -3.6820   0.9407 O.co2          1 <1>                0.0000
     27 O27          4.1656  -4.3521   2.0364 O.co2          1 <1>                0.0000
     28 C28          4.0384   0.5964   0.8660 C.2            1 <1>                0.0000
     29 N29          3.9775   1.9493   0.8715 N.pl3          1 <1>                0.0000
     30 H30          3.7912   4.4895   0.8921 H              1 <1>                0.0000
     31 H31          2.2378   4.4741   0.0232 H              1 <1>                0.0000
     32 H32          2.2622   4.4614   1.8029 H              1 <1>                0.0000
     33 H33          0.5163   3.5386   0.9193 H              1 <1>                0.0000
     34 H34          0.4923  -1.3303   0.8832 H              1 <1>                0.0000
     35 H35         -3.8245   0.0227   1.4880 H              1 <1>                0.0000
     36 H36         -3.0028   1.4507   0.8142 H              1 <1>                0.0000
     37 H37         -2.8431   1.7747  -1.5862 H              1 <1>                0.0000
     38 H38         -3.8477   1.3219  -3.7870 H              1 <1>                0.0000
     39 H39         -4.9280  -1.2451  -4.8967 H              1 <1>                0.0000
     40 H40         -4.8232  -1.6390   0.0314 H              1 <1>                0.0000
     41 H41          2.5020  -2.0505   1.7494 H              1 <1>                0.0000
     42 H42          2.4862  -2.0366  -0.0305 H              1 <1>                0.0000
     43 H43          5.0005   0.1058   0.8539 H              1 <1>                0.0000
     44 H44          4.8016   2.4611   0.8676 H              1 <1>                0.0000
@<TRIPOS>BOND
    1    1    2 1     
    2    1   30 1     
    3    1   31 1     
    4    1   32 1     
    5    2   29 1     
    6    2    3 2     
    7    3    4 1     
    8    3    5 1     
    9    4   33 1     
   10    5    6 2     
   11    5   21 1     
   12    6    7 1     
   13    6   34 1     
   14    7    8 2     
   15    8    9 1     
   16    8   18 1     
   17    9   10 1     
   18    9   35 1     
   19    9   36 1     
   20   10   17 ar    
   21   10   11 ar    
   22   11   12 ar    
   23   11   37 1     
   24   12   13 ar    
   25   12   38 1     
   26   13   14 1     
   27   13   15 ar    
   28   14   39 1     
   29   15   16 1     
   30   15   17 ar    
   31   17   40 1     
   32   18   19 ar    
   33   18   20 ar    
   34   21   22 1     
   35   21   28 2     
   36   22   23 1     
   37   22   41 1     
   38   22   42 1     
   39   23   24 1     
   40   24   25 ar    
   41   24   26 ar    
   42   24   27 ar    
   43   28   29 1     
   44   28   43 1     
   45   29   44 1     
@<TRIPOS>SUBSTRUCTURE
      1 ****           1
@<TRIPOS>SET
DONOR_HYDROGENS      STATIC     ATOMS    <user>   **** ""
3 33 39 44
ATOM$RED        STATIC     ATOMS    COLORGROUP SYSTEM
3 33 39 44
