#       Name:                P6P
#       Creating user name   gbret
#       Creation time:       Fri Sep  9 14:07:55 2016


#       File generated by GOLD software.
#

@<TRIPOS>MOLECULE
P6P
    27    27     1
SMALL
NO_CHARGES


@<TRIPOS>ATOM
      1 O1           2.2903   2.3460   1.4171 O.3            1 <1>                0.0000
      2 C2           2.3097   0.9171   1.4092 C.3            1 <1>                0.0000
      3 C3           0.8743   0.3876   1.4201 C.3            1 <1>                0.0000
      4 O4           0.1718   0.8804   2.5627 O.3            1 <1>                0.0000
      5 O5           0.1901   0.7645   0.2053 O.3            1 <1>                0.0000
      6 C6          -0.9138  -0.1593   0.0880 C.3            1 <1>                0.0000
      7 C7          -1.4065  -0.2194  -1.3593 C.3            1 <1>                0.0000
      8 O8          -1.9784   1.0394  -1.7204 O.3            1 <1>                0.0000
      9 P9          -2.5995   1.3350  -3.1760 P.3            1 <1>                0.0000
     10 O10         -3.8567   0.4277  -3.4015 O.co2          1 <1>                0.0000
     11 O11         -3.0194   2.8415  -3.2685 O.co2          1 <1>                0.0000
     12 O12         -1.5269   1.0235  -4.2746 O.co2          1 <1>                0.0000
     13 C13         -0.3324  -1.5253   0.5153 C.3            1 <1>                0.0000
     14 O14          0.1024  -2.2641  -0.6279 O.3            1 <1>                0.0000
     15 C15          0.8709  -1.1572   1.4118 C.3            1 <1>                0.0000
     16 O16          2.0857  -1.6576   0.8496 O.3            1 <1>                0.0000
     17 H17          3.1682   2.7513   1.4109 H              1 <1>                0.0000
     18 H18          2.8199   0.5656   0.5124 H              1 <1>                0.0000
     19 H19          2.8369   0.5561   2.2923 H              1 <1>                0.0000
     20 H20          0.1214   1.8451   2.6075 H              1 <1>                0.0000
     21 H21         -1.7263   0.1339   0.7528 H              1 <1>                0.0000
     22 H22         -0.5680  -0.4404  -2.0197 H              1 <1>                0.0000
     23 H23         -2.1598  -1.0014  -1.4544 H              1 <1>                0.0000
     24 H24         -1.0711  -2.0952   1.0789 H              1 <1>                0.0000
     25 H25          0.4764  -3.1306  -0.4173 H              1 <1>                0.0000
     26 H26          0.7281  -1.5442   2.4207 H              1 <1>                0.0000
     27 H27          2.1126  -2.6205   0.7649 H              1 <1>                0.0000
@<TRIPOS>BOND
    1    1    2 1     
    2    1   17 1     
    3    2    3 1     
    4    2   18 1     
    5    2   19 1     
    6    3   15 1     
    7    3    4 1     
    8    3    5 1     
    9    4   20 1     
   10    5    6 1     
   11    6    7 1     
   12    6   13 1     
   13    6   21 1     
   14    7    8 1     
   15    7   22 1     
   16    7   23 1     
   17    8    9 1     
   18    9   10 ar    
   19    9   11 ar    
   20    9   12 ar    
   21   13   14 1     
   22   13   15 1     
   23   13   24 1     
   24   14   25 1     
   25   15   16 1     
   26   15   26 1     
   27   16   27 1     
@<TRIPOS>SUBSTRUCTURE
      1 ****           1
@<TRIPOS>SET
DONOR_HYDROGENS      STATIC     ATOMS    <user>   **** ""
4 17 20 25 27
ATOM$RED        STATIC     ATOMS    COLORGROUP SYSTEM
4 17 20 25 27
