#       Name:                P8X
#       Creating user name   gbret
#       Creation time:       Fri Sep  9 14:09:36 2016


#       File generated by GOLD software.
#

@<TRIPOS>MOLECULE
P8X
   114   118     1
SMALL
NO_CHARGES


@<TRIPOS>ATOM
      1 C1          -4.0513   2.0704  -0.5861 C.3            1 <1>                0.0000
      2 C2          -3.5401   0.6808  -0.1906 C.3            1 <1>                0.0000
      3 C3          -2.8156   0.0667  -1.3603 C.2            1 <1>                0.0000
      4 C4          -3.4298  -0.5833  -2.3500 C.2            1 <1>                0.0000
      5 C5          -4.9054  -0.8451  -2.5153 C.3            1 <1>                0.0000
      6 C6          -5.5195   0.2393  -3.4029 C.3            1 <1>                0.0000
      7 C7          -6.9944  -0.0224  -3.5681 C.2            1 <1>                0.0000
      8 O8          -7.5069  -0.9869  -3.0262 O.co2          1 <1>                0.0000
      9 O9          -7.6752   0.7303  -4.2438 O.co2          1 <1>                0.0000
     10 C10         -2.3239  -1.0135  -3.2954 C.3            1 <1>                0.0000
     11 C11         -2.2840  -2.5384  -3.4184 C.3            1 <1>                0.0000
     12 C12         -2.5030  -0.3636  -4.6681 C.3            1 <1>                0.0000
     13 C13         -1.0686  -0.4955  -2.6077 C.2            1 <1>                0.0000
     14 C14          0.2359  -0.6538  -3.0896 C.2            1 <1>                0.0000
     15 C15          1.3653  -0.3523  -2.4093 C.2            1 <1>                0.0000
     16 N16          1.4743   0.1617  -1.1859 N.2            1 <1>                0.0000
     17 C17          2.6829   0.2258  -0.7056 C.2            1 <1>                0.0000
     18 C18          3.0583   0.7045   0.5684 C.2            1 <1>                0.0000
     19 C19          2.2402   1.4382   1.3279 C.2            1 <1>                0.0000
     20 N20          0.9852   1.8939   0.9611 N.4            1 <1>                0.0000
     21 H21          1.1215   2.6665   0.3045 H              1 <1>                0.0000
     22 H22          0.4556   1.1989   0.4823 H              1 <1>                0.0000
     23 C23          0.2670   2.4242   2.1262 C.3            1 <1>                0.0000
     24 C24         -0.0894   3.8992   1.7651 C.3            1 <1>                0.0000
     25 C25         -1.0408   1.7181   2.3894 C.3            1 <1>                0.0000
     26 N26         -1.8828   1.8485   1.1774 N.2            1 <1>                0.0000
     27 C27         -2.6006   0.8209   0.9771 C.2            1 <1>                0.0000
     28 C28         -2.3904  -0.2117   2.0528 C.3            1 <1>                0.0000
     29 C29         -3.5301  -0.1815   3.0684 C.3            1 <1>                0.0000
     30 C30         -2.2249  -1.6076   1.4595 C.3            1 <1>                0.0000
     31 C31         -2.1413  -2.6354   2.5898 C.3            1 <1>                0.0000
     32 C32         -1.8502  -3.9960   2.0109 C.2            1 <1>                0.0000
     33 O33         -1.7217  -4.1311   0.8060 O.co2          1 <1>                0.0000
     34 O34         -1.7434  -4.9617   2.7475 O.co2          1 <1>                0.0000
     35 C35         -1.0619   0.2362   2.7315 C.3            1 <1>                0.0000
     36 C36          0.0811  -0.6068   2.1878 C.3            1 <1>                0.0000
     37 C37          0.0435  -0.5922   0.6813 C.2            1 <1>                0.0000
     38 O38         -0.6974   0.1803   0.0974 O.co2          1 <1>                0.0000
     39 O39          0.7539  -1.3529   0.0464 O.co2          1 <1>                0.0000
     40 C40          1.2475   2.5026   3.2972 C.3            1 <1>                0.0000
     41 C41          1.4682   3.9802   3.6848 C.3            1 <1>                0.0000
     42 C42          0.8158   1.7240   4.5342 C.3            1 <1>                0.0000
     43 C43         -0.4183   2.3587   5.1219 C.2            1 <1>                0.0000
     44 O44         -0.9016   3.3492   4.6005 O.co2          1 <1>                0.0000
     45 O45         -0.9334   1.8817   6.1187 O.co2          1 <1>                0.0000
     46 C46          2.5584   1.9386   2.7148 C.3            1 <1>                0.0000
     47 C47          3.0811   0.8047   3.5977 C.3            1 <1>                0.0000
     48 C48          4.5493   0.5334   3.2633 C.3            1 <1>                0.0000
     49 C49          5.0498  -0.6180   4.0969 C.2            1 <1>                0.0000
     50 O50          4.3016  -1.1705   4.8852 O.co2          1 <1>                0.0000
     51 O51          6.2030  -0.9972   3.9829 O.co2          1 <1>                0.0000
     52 C52          3.6625  -0.2907  -1.7424 C.3            1 <1>                0.0000
     53 C53          4.7169   0.7692  -2.0695 C.3            1 <1>                0.0000
     54 C54          4.3282  -1.5835  -1.2658 C.3            1 <1>                0.0000
     55 C55          5.4408  -1.9541  -2.2122 C.2            1 <1>                0.0000
     56 O56          5.6304  -1.2930  -3.2189 O.co2          1 <1>                0.0000
     57 O57          6.1514  -2.9151  -1.9712 O.co2          1 <1>                0.0000
     58 C58          2.7659  -0.5613  -2.9681 C.3            1 <1>                0.0000
     59 C59          2.9489  -1.9985  -3.4616 C.3            1 <1>                0.0000
     60 C60          2.2362  -2.1713  -4.8044 C.3            1 <1>                0.0000
     61 C61          2.5439  -3.5360  -5.3645 C.2            1 <1>                0.0000
     62 O62          3.2664  -4.2997  -4.7470 O.co2          1 <1>                0.0000
     63 O63          2.0705  -3.8765  -6.4352 O.co2          1 <1>                0.0000
     64 N64         -1.4841   0.1032  -1.5208 N.2            1 <1>                0.0000
     65 H65         -3.2079   2.7019  -0.8655 H              1 <1>                0.0000
     66 H66         -4.7331   1.9797  -1.4317 H              1 <1>                0.0000
     67 H67         -4.5765   2.5181   0.2576 H              1 <1>                0.0000
     68 H68         -4.3837   0.0552   0.0935 H              1 <1>                0.0000
     69 H69         -5.0516  -1.8205  -2.9795 H              1 <1>                0.0000
     70 H70         -5.3885  -0.8316  -1.5383 H              1 <1>                0.0000
     71 H71         -5.3734   1.2146  -2.9388 H              1 <1>                0.0000
     72 H72         -5.0365   0.2258  -4.3799 H              1 <1>                0.0000
     73 H73         -3.2382  -2.8969  -3.8046 H              1 <1>                0.0000
     74 H74         -1.4844  -2.8271  -4.1006 H              1 <1>                0.0000
     75 H75         -2.1010  -2.9774  -2.4376 H              1 <1>                0.0000
     76 H76         -2.4745   0.7210  -4.5631 H              1 <1>                0.0000
     77 H77         -1.6993  -0.6857  -5.3302 H              1 <1>                0.0000
     78 H78         -3.4627  -0.6627  -5.0894 H              1 <1>                0.0000
     79 H79          0.3496  -1.0418  -4.0954 H              1 <1>                0.0000
     80 H80          4.0460   0.4742   0.9376 H              1 <1>                0.0000
     81 H81         -0.6751   3.9169   0.8460 H              1 <1>                0.0000
     82 H82         -0.6702   4.3413   2.5746 H              1 <1>                0.0000
     83 H83          0.8281   4.4701   1.6223 H              1 <1>                0.0000
     84 H84         -1.5827   2.2715   3.1849 H              1 <1>                0.0000
     85 H85         -4.4695  -0.4152   2.5674 H              1 <1>                0.0000
     86 H86         -3.3412  -0.9189   3.8485 H              1 <1>                0.0000
     87 H87         -3.5933   0.8111   3.5143 H              1 <1>                0.0000
     88 H88         -3.0802  -1.8358   0.8235 H              1 <1>                0.0000
     89 H89         -1.3111  -1.6444   0.8666 H              1 <1>                0.0000
     90 H90         -1.3436  -2.3550   3.2776 H              1 <1>                0.0000
     91 H91         -3.0899  -2.6640   3.1259 H              1 <1>                0.0000
     92 H92         -1.1678   0.0772   3.8133 H              1 <1>                0.0000
     93 H93          1.0306  -0.1965   2.5315 H              1 <1>                0.0000
     94 H94         -0.0221  -1.6318   2.5439 H              1 <1>                0.0000
     95 H95          0.5308   4.4057   4.0429 H              1 <1>                0.0000
     96 H96          2.2192   4.0409   4.4725 H              1 <1>                0.0000
     97 H97          1.8105   4.5373   2.8127 H              1 <1>                0.0000
     98 H98          0.5969   0.6929   4.2566 H              1 <1>                0.0000
     99 H99          1.6184   1.7392   5.2716 H              1 <1>                0.0000
    100 H100         3.3058   2.7356   2.6595 H              1 <1>                0.0000
    101 H101         2.9940   1.0906   4.6459 H              1 <1>                0.0000
    102 H102         2.4949  -0.0963   3.4169 H              1 <1>                0.0000
    103 H103         4.6411   0.2836   2.2063 H              1 <1>                0.0000
    104 H104         5.1415   1.4227   3.4793 H              1 <1>                0.0000
    105 H105         5.2840   1.0075  -1.1696 H              1 <1>                0.0000
    106 H106         5.3928   0.3856  -2.8338 H              1 <1>                0.0000
    107 H107         4.2251   1.6694  -2.4380 H              1 <1>                0.0000
    108 H108         4.7361  -1.4349  -0.2659 H              1 <1>                0.0000
    109 H109         3.5898  -2.3849  -1.2415 H              1 <1>                0.0000
    110 H110         2.9745   0.1506  -3.7664 H              1 <1>                0.0000
    111 H111         4.0115  -2.2079  -3.5846 H              1 <1>                0.0000
    112 H112         2.5243  -2.6896  -2.7334 H              1 <1>                0.0000
    113 H113         1.1603  -2.0719  -4.6601 H              1 <1>                0.0000
    114 H114         2.5816  -1.4066  -5.5001 H              1 <1>                0.0000
@<TRIPOS>BOND
    1    1    2 1     
    2    1   65 1     
    3    1   66 1     
    4    1   67 1     
    5    2   27 1     
    6    2    3 1     
    7    2   68 1     
    8    3   64 1     
    9    3    4 2     
   10    4    5 1     
   11    4   10 1     
   12    5    6 1     
   13    5   69 1     
   14    5   70 1     
   15    6    7 1     
   16    6   71 1     
   17    6   72 1     
   18    7    8 ar    
   19    7    9 ar    
   20   10   11 1     
   21   10   12 1     
   22   10   13 1     
   23   11   73 1     
   24   11   74 1     
   25   11   75 1     
   26   12   76 1     
   27   12   77 1     
   28   12   78 1     
   29   13   14 1     
   30   13   64 2     
   31   14   15 2     
   32   14   79 1     
   33   15   58 1     
   34   15   16 1     
   35   16   17 2     
   36   17   18 1     
   37   17   52 1     
   38   18   19 2     
   39   18   80 1     
   40   19   46 1     
   41   19   20 1     
   42   20   21 1     
   43   20   22 1     
   44   20   23 1     
   45   23   24 1     
   46   23   25 1     
   47   23   40 1     
   48   24   81 1     
   49   24   82 1     
   50   24   83 1     
   51   25   35 1     
   52   25   26 1     
   53   25   84 1     
   54   26   27 2     
   55   27   28 1     
   56   28   29 1     
   57   28   30 1     
   58   28   35 1     
   59   29   85 1     
   60   29   86 1     
   61   29   87 1     
   62   30   31 1     
   63   30   88 1     
   64   30   89 1     
   65   31   32 1     
   66   31   90 1     
   67   31   91 1     
   68   32   33 ar    
   69   32   34 ar    
   70   35   36 1     
   71   35   92 1     
   72   36   37 1     
   73   36   93 1     
   74   36   94 1     
   75   37   38 ar    
   76   37   39 ar    
   77   40   41 1     
   78   40   42 1     
   79   40   46 1     
   80   41   95 1     
   81   41   96 1     
   82   41   97 1     
   83   42   43 1     
   84   42   98 1     
   85   42   99 1     
   86   43   44 ar    
   87   43   45 ar    
   88   46   47 1     
   89   46  100 1     
   90   47   48 1     
   91   47  101 1     
   92   47  102 1     
   93   48   49 1     
   94   48  103 1     
   95   48  104 1     
   96   49   50 ar    
   97   49   51 ar    
   98   52   53 1     
   99   52   54 1     
  100   52   58 1     
  101   53  105 1     
  102   53  106 1     
  103   53  107 1     
  104   54   55 1     
  105   54  108 1     
  106   54  109 1     
  107   55   56 ar    
  108   55   57 ar    
  109   58   59 1     
  110   58  110 1     
  111   59   60 1     
  112   59  111 1     
  113   59  112 1     
  114   60   61 1     
  115   60  113 1     
  116   60  114 1     
  117   61   62 ar    
  118   61   63 ar    
@<TRIPOS>SUBSTRUCTURE
      1 ****           1
@<TRIPOS>SET
DONOR_HYDROGENS      STATIC     ATOMS    <user>   **** ""
2 21 22
ATOM$RED        STATIC     ATOMS    COLORGROUP SYSTEM
2 21 22
