#       Name:                PD6
#       Creating user name   gbret
#       Creation time:       Fri Sep  9 14:18:08 2016


#       File generated by GOLD software.
#

@<TRIPOS>MOLECULE
PD6
    41    43     1
SMALL
NO_CHARGES


@<TRIPOS>ATOM
      1 C1          -3.0757   3.3991   1.4095 C.3            1 <1>                0.0000
      2 C2          -3.1386   1.8716   1.3504 C.3            1 <1>                0.0000
      3 C3          -2.4223   1.3800   0.0910 C.3            1 <1>                0.0000
      4 C4          -2.4853  -0.1476   0.0318 C.3            1 <1>                0.0000
      5 N5          -1.7994  -0.6183  -1.1741 N.pl3          1 <1>                0.0000
      6 C6          -2.5222  -0.8589  -2.2979 C.2            1 <1>                0.0000
      7 C7          -1.9583  -1.2930  -3.4425 C.2            1 <1>                0.0000
      8 C8          -0.5602  -1.5164  -3.5077 C.2            1 <1>                0.0000
      9 O9          -0.0308  -1.9089  -4.5348 O.2            1 <1>                0.0000
     10 C10          0.2291  -1.2587  -2.2972 C.ar           1 <1>                0.0000
     11 C11          1.6190  -1.4484  -2.2584 C.ar           1 <1>                0.0000
     12 N12          2.2890  -1.8916  -3.3845 N.pl3          1 <1>                0.0000
     13 N13          2.2877  -1.2023  -1.1438 N.ar           1 <1>                0.0000
     14 C14          1.6840  -0.7744  -0.0379 C.ar           1 <1>                0.0000
     15 C15          0.3120  -0.5628   0.0029 C.ar           1 <1>                0.0000
     16 C16         -0.4392  -0.8011  -1.1447 C.ar           1 <1>                0.0000
     17 C17          2.4938  -0.5182   1.1776 C.ar           1 <1>                0.0000
     18 C18          1.8787  -0.0751   2.3474 C.ar           1 <1>                0.0000
     19 C19          2.6374   0.1617   3.4756 C.ar           1 <1>                0.0000
     20 C20          4.0057  -0.0399   3.4471 C.ar           1 <1>                0.0000
     21 C21          4.6214  -0.4796   2.2890 C.ar           1 <1>                0.0000
     22 C22          3.8721  -0.7252   1.1565 C.ar           1 <1>                0.0000
     23 H23         -2.0340   3.7191   1.4357 H              1 <1>                0.0000
     24 H24         -3.5621   3.8172   0.5282 H              1 <1>                0.0000
     25 H25         -3.5860   3.7493   2.3067 H              1 <1>                0.0000
     26 H26         -2.6522   1.4535   2.2317 H              1 <1>                0.0000
     27 H27         -4.1803   1.5516   1.3242 H              1 <1>                0.0000
     28 H28         -2.9088   1.7980  -0.7903 H              1 <1>                0.0000
     29 H29         -1.3807   1.6999   0.1171 H              1 <1>                0.0000
     30 H30         -1.9988  -0.5657   0.9131 H              1 <1>                0.0000
     31 H31         -3.5269  -0.4676   0.0057 H              1 <1>                0.0000
     32 H32         -3.5897  -0.6967  -2.2737 H              1 <1>                0.0000
     33 H33         -2.5734  -1.4715  -4.3121 H              1 <1>                0.0000
     34 H34          1.7982  -2.0715  -4.2016 H              1 <1>                0.0000
     35 H35          3.2497  -2.0228  -3.3571 H              1 <1>                0.0000
     36 H36         -0.1635  -0.2152   0.9082 H              1 <1>                0.0000
     37 H37          0.8106   0.0830   2.3707 H              1 <1>                0.0000
     38 H38          2.1621   0.5054   4.3824 H              1 <1>                0.0000
     39 H39          4.5955   0.1470   4.3323 H              1 <1>                0.0000
     40 H40          5.6901  -0.6350   2.2724 H              1 <1>                0.0000
     41 H41          4.3538  -1.0688   0.2530 H              1 <1>                0.0000
@<TRIPOS>BOND
    1    1    2 1     
    2    1   23 1     
    3    1   24 1     
    4    1   25 1     
    5    2    3 1     
    6    2   26 1     
    7    2   27 1     
    8    3    4 1     
    9    3   28 1     
   10    3   29 1     
   11    4    5 1     
   12    4   30 1     
   13    4   31 1     
   14    5   16 1     
   15    5    6 1     
   16    6    7 2     
   17    6   32 1     
   18    7    8 1     
   19    7   33 1     
   20    8    9 2     
   21    8   10 1     
   22   10   16 ar    
   23   10   11 ar    
   24   11   12 1     
   25   11   13 ar    
   26   12   34 1     
   27   12   35 1     
   28   13   14 ar    
   29   14   15 ar    
   30   14   17 1     
   31   15   16 ar    
   32   15   36 1     
   33   17   22 ar    
   34   17   18 ar    
   35   18   19 ar    
   36   18   37 1     
   37   19   20 ar    
   38   19   38 1     
   39   20   21 ar    
   40   20   39 1     
   41   21   22 ar    
   42   21   40 1     
   43   22   41 1     
@<TRIPOS>SUBSTRUCTURE
      1 ****           1
@<TRIPOS>SET
DONOR_HYDROGENS      STATIC     ATOMS    <user>   **** ""
2 34 35
ATOM$RED        STATIC     ATOMS    COLORGROUP SYSTEM
2 34 35
