#       Name:                PDM
#       Creating user name   gbret
#       Creation time:       Fri Sep  9 14:19:15 2016


#       File generated by GOLD software.
#

@<TRIPOS>MOLECULE
PDM
    36    37     1
SMALL
NO_CHARGES


@<TRIPOS>ATOM
      1 O1           2.4675  -0.4313  -2.6202 O.3            1 <1>                0.0000
      2 C2           2.0001   0.7424  -1.9523 C.3            1 <1>                0.0000
      3 C3           2.5391   1.9840  -2.6657 C.3            1 <1>                0.0000
      4 C4           4.0631   2.0248  -2.5370 C.3            1 <1>                0.0000
      5 C5           4.5939   3.2477  -3.2397 C.2            1 <1>                0.0000
      6 O6           3.8246   4.0154  -3.7922 O.co2          1 <1>                0.0000
      7 O7           5.7927   3.4694  -3.2557 O.co2          1 <1>                0.0000
      8 N8           0.5354   0.7650  -1.9721 N.pl3          1 <1>                0.0000
      9 C9          -0.1867   0.2217  -0.9051 C.ar           1 <1>                0.0000
     10 C10         -1.5733   0.1628  -0.9631 C.ar           1 <1>                0.0000
     11 C11         -2.2858  -0.3741   0.0904 C.ar           1 <1>                0.0000
     12 C12         -1.6168  -0.8551   1.2076 C.ar           1 <1>                0.0000
     13 C13         -0.2311  -0.7960   1.2662 C.ar           1 <1>                0.0000
     14 C14          0.4826  -0.2645   0.2107 C.ar           1 <1>                0.0000
     15 N15         -2.3417  -1.4010   2.2786 N.am           1 <1>                0.0000
     16 C16         -2.3919  -0.8267   3.4869 C.2            1 <1>                0.0000
     17 O17         -1.8354   0.2044   3.7980 O.2            1 <1>                0.0000
     18 C18         -3.2536  -1.6684   4.4027 C.3            1 <1>                0.0000
     19 C19         -3.6974  -2.8410   3.5046 C.3            1 <1>                0.0000
     20 C20         -3.0444  -2.5357   2.1742 C.2            1 <1>                0.0000
     21 O21         -3.1371  -3.2148   1.1742 O.2            1 <1>                0.0000
     22 H22          2.1937  -0.4925  -3.5456 H              1 <1>                0.0000
     23 H23          2.3494   0.7363  -0.9198 H              1 <1>                0.0000
     24 H24          2.2643   1.9453  -3.7198 H              1 <1>                0.0000
     25 H25          2.1120   2.8781  -2.2115 H              1 <1>                0.0000
     26 H26          4.3378   2.0635  -1.4829 H              1 <1>                0.0000
     27 H27          4.4902   1.1307  -2.9912 H              1 <1>                0.0000
     28 H28          0.0666   1.1569  -2.7255 H              1 <1>                0.0000
     29 H29         -2.0939   0.5373  -1.8321 H              1 <1>                0.0000
     30 H30         -3.3639  -0.4197   0.0455 H              1 <1>                0.0000
     31 H31          0.2890  -1.1700   2.1357 H              1 <1>                0.0000
     32 H32          1.5606  -0.2185   0.2564 H              1 <1>                0.0000
     33 H33         -2.6717  -2.0326   5.2494 H              1 <1>                0.0000
     34 H34         -4.1178  -1.0997   4.7460 H              1 <1>                0.0000
     35 H35         -3.3363  -3.7885   3.9045 H              1 <1>                0.0000
     36 H36         -4.7824  -2.8557   3.4011 H              1 <1>                0.0000
@<TRIPOS>BOND
    1    1    2 1     
    2    1   22 1     
    3    2    3 1     
    4    2    8 1     
    5    2   23 1     
    6    3    4 1     
    7    3   24 1     
    8    3   25 1     
    9    4    5 1     
   10    4   26 1     
   11    4   27 1     
   12    5    6 ar    
   13    5    7 ar    
   14    8    9 1     
   15    8   28 1     
   16    9   14 ar    
   17    9   10 ar    
   18   10   11 ar    
   19   10   29 1     
   20   11   12 ar    
   21   11   30 1     
   22   12   13 ar    
   23   12   15 1     
   24   13   14 ar    
   25   13   31 1     
   26   14   32 1     
   27   15   20 am    
   28   15   16 am    
   29   16   17 2     
   30   16   18 1     
   31   18   19 1     
   32   18   33 1     
   33   18   34 1     
   34   19   20 1     
   35   19   35 1     
   36   19   36 1     
   37   20   21 2     
@<TRIPOS>SUBSTRUCTURE
      1 ****           1
@<TRIPOS>SET
DONOR_HYDROGENS      STATIC     ATOMS    <user>   **** ""
2 22 28
ATOM$RED        STATIC     ATOMS    COLORGROUP SYSTEM
2 22 28
