#       Name:                PE3
#       Creating user name   gbret
#       Creation time:       Fri Sep  9 14:20:19 2016


#       File generated by GOLD software.
#

@<TRIPOS>MOLECULE
PE3
   101   100     1
SMALL
NO_CHARGES


@<TRIPOS>ATOM
      1 O1           7.9203  10.6757  12.5576 O.3            1 <1>                0.0000
      2 C2           7.9397   9.2468  12.5497 C.3            1 <1>                0.0000
      3 C3           6.5043   8.7173  12.5606 C.3            1 <1>                0.0000
      4 O4           5.8487   9.0931  11.3477 O.3            1 <1>                0.0000
      5 C5           4.4948   8.6453  11.2560 C.3            1 <1>                0.0000
      6 C6           3.8957   9.1021   9.9243 C.3            1 <1>                0.0000
      7 O7           4.5806   8.4582   8.8481 O.3            1 <1>                0.0000
      8 C8           4.0957   8.8176   7.5528 C.3            1 <1>                0.0000
      9 C9           4.8974   8.0728   6.4834 C.3            1 <1>                0.0000
     10 O10          4.6582   6.6689   6.6004 O.3            1 <1>                0.0000
     11 C11          5.3637   5.8773   5.6424 C.3            1 <1>                0.0000
     12 C12          5.0341   4.3992   5.8603 C.3            1 <1>                0.0000
     13 O13          3.6491   4.1750   5.5895 O.3            1 <1>                0.0000
     14 C14          3.2348   2.8185   5.7640 C.3            1 <1>                0.0000
     15 C15          1.7427   2.6964   5.4486 C.3            1 <1>                0.0000
     16 O16          1.5230   2.9839   4.0662 O.3            1 <1>                0.0000
     17 C17          0.1542   2.8974   3.6649 C.3            1 <1>                0.0000
     18 C18          0.0381   3.2230   2.1745 C.3            1 <1>                0.0000
     19 O19          0.7189   2.2230   1.4140 O.3            1 <1>                0.0000
     20 C20          0.6708   2.4339   0.0014 C.3            1 <1>                0.0000
     21 C21          1.4275   1.3094  -0.7082 C.3            1 <1>                0.0000
     22 O22          0.7533   0.0688  -0.4881 O.3            1 <1>                0.0000
     23 C23          1.3817  -1.0529  -1.1119 C.3            1 <1>                0.0000
     24 C24          0.5786  -2.3199  -0.8110 C.3            1 <1>                0.0000
     25 O25         -0.7108  -2.2223  -1.4193 O.3            1 <1>                0.0000
     26 C26         -1.5455  -3.3608  -1.1979 C.3            1 <1>                0.0000
     27 C27         -2.8930  -3.1476  -1.8905 C.3            1 <1>                0.0000
     28 O28         -2.6979  -3.0913  -3.3050 O.3            1 <1>                0.0000
     29 C29         -3.9010  -2.8936  -4.0503 C.3            1 <1>                0.0000
     30 C30         -3.5741  -2.8496  -5.5443 C.3            1 <1>                0.0000
     31 O31         -3.0763  -4.1228  -5.9606 O.3            1 <1>                0.0000
     32 C32         -2.7388  -4.1896  -7.3476 C.3            1 <1>                0.0000
     33 C33         -2.2200  -5.5902  -7.6793 C.3            1 <1>                0.0000
     34 O34         -3.2705  -6.5422  -7.4996 O.3            1 <1>                0.0000
     35 C35         -2.8889  -7.8895  -7.7847 C.3            1 <1>                0.0000
     36 C36         -4.0850  -8.8167  -7.5598 C.3            1 <1>                0.0000
     37 O37         -5.1121  -8.5068  -8.5037 O.3            1 <1>                0.0000
     38 C38         -6.2805  -9.3200  -8.3792 C.3            1 <1>                0.0000
     39 C39         -7.3074  -8.9023  -9.4338 C.3            1 <1>                0.0000
     40 O40         -6.7911  -9.1793 -10.7372 O.3            1 <1>                0.0000
     41 C41         -7.6772  -8.8245 -11.8007 C.3            1 <1>                0.0000
     42 C42         -7.0248  -9.1634 -13.1425 C.3            1 <1>                0.0000
     43 O43         -6.8569 -10.5786 -13.2466 O.3            1 <1>                0.0000
     44 H44          8.7982  11.0810  12.5514 H              1 <1>                0.0000
     45 H45          8.4499   8.8953  11.6529 H              1 <1>                0.0000
     46 H46          8.4669   8.8858  13.4328 H              1 <1>                0.0000
     47 H47          6.5186   7.6306  12.6442 H              1 <1>                0.0000
     48 H48          5.9675   9.1400  13.4098 H              1 <1>                0.0000
     49 H49          4.4674   7.5571  11.3125 H              1 <1>                0.0000
     50 H50          3.9163   9.0665  12.0782 H              1 <1>                0.0000
     51 H51          2.8386   8.8382   9.8919 H              1 <1>                0.0000
     52 H52          4.0035  10.1825   9.8290 H              1 <1>                0.0000
     53 H53          3.0428   8.5478   7.4712 H              1 <1>                0.0000
     54 H54          4.2077   9.8922   7.4082 H              1 <1>                0.0000
     55 H55          4.5883   8.4129   5.4950 H              1 <1>                0.0000
     56 H56          5.9600   8.2731   6.6207 H              1 <1>                0.0000
     57 H57          5.0643   6.1718   4.6366 H              1 <1>                0.0000
     58 H58          6.4360   6.0320   5.7623 H              1 <1>                0.0000
     59 H59          5.6389   3.7893   5.1892 H              1 <1>                0.0000
     60 H60          5.2511   4.1270   6.8933 H              1 <1>                0.0000
     61 H61          3.8023   2.1759   5.0909 H              1 <1>                0.0000
     62 H62          3.4144   2.5136   6.7950 H              1 <1>                0.0000
     63 H63          1.4070   1.6825   5.6667 H              1 <1>                0.0000
     64 H64          1.1829   3.4039   6.0603 H              1 <1>                0.0000
     65 H65         -0.2144   1.8877   3.8460 H              1 <1>                0.0000
     66 H66         -0.4386   3.6091   4.2396 H              1 <1>                0.0000
     67 H67         -1.0134   3.2442   1.8881 H              1 <1>                0.0000
     68 H68          0.4875   4.1967   1.9792 H              1 <1>                0.0000
     69 H69         -0.3676   2.4388  -0.3301 H              1 <1>                0.0000
     70 H70          1.1334   3.3912  -0.2389 H              1 <1>                0.0000
     71 H71          1.4672   1.5166  -1.7776 H              1 <1>                0.0000
     72 H72          2.4412   1.2473  -0.3123 H              1 <1>                0.0000
     73 H73          1.4204  -0.8947  -2.1897 H              1 <1>                0.0000
     74 H74          2.3944  -1.1640  -0.7244 H              1 <1>                0.0000
     75 H75          1.1044  -3.1869  -1.2110 H              1 <1>                0.0000
     76 H76          0.4642  -2.4300   0.2674 H              1 <1>                0.0000
     77 H77         -1.0639  -4.2494  -1.6059 H              1 <1>                0.0000
     78 H78         -1.7040  -3.4925  -0.1275 H              1 <1>                0.0000
     79 H79         -3.5608  -3.9745  -1.6485 H              1 <1>                0.0000
     80 H80         -3.3341  -2.2119  -1.5470 H              1 <1>                0.0000
     81 H81         -4.5897  -3.7152  -3.8531 H              1 <1>                0.0000
     82 H82         -4.3630  -1.9526  -3.7516 H              1 <1>                0.0000
     83 H83         -4.4766  -2.6107  -6.1068 H              1 <1>                0.0000
     84 H84         -2.8183  -2.0861  -5.7285 H              1 <1>                0.0000
     85 H85         -3.6240  -3.9785  -7.9475 H              1 <1>                0.0000
     86 H86         -1.9657  -3.4539  -7.5692 H              1 <1>                0.0000
     87 H87         -1.8796  -5.6159  -8.7144 H              1 <1>                0.0000
     88 H88         -1.3896  -5.8363  -7.0175 H              1 <1>                0.0000
     89 H89         -2.5624  -7.9628  -8.8221 H              1 <1>                0.0000
     90 H90         -2.0724  -8.1832  -7.1252 H              1 <1>                0.0000
     91 H91         -3.7715  -9.8524  -7.6909 H              1 <1>                0.0000
     92 H92         -4.4671  -8.6780  -6.5484 H              1 <1>                0.0000
     93 H93         -6.0126 -10.3661  -8.5273 H              1 <1>                0.0000
     94 H94         -6.7082  -9.1917  -7.3849 H              1 <1>                0.0000
     95 H95         -8.2311  -9.4608  -9.2826 H              1 <1>                0.0000
     96 H96         -7.5088  -7.8350  -9.3420 H              1 <1>                0.0000
     97 H97         -8.6086  -9.3813 -11.6987 H              1 <1>                0.0000
     98 H98         -7.8863  -7.7556 -11.7581 H              1 <1>                0.0000
     99 H99         -7.6611  -8.8122 -13.9549 H              1 <1>                0.0000
    100 H100        -6.0517  -8.6764 -13.2067 H              1 <1>                0.0000
    101 H101        -6.4479 -10.8664 -14.0742 H              1 <1>                0.0000
@<TRIPOS>BOND
    1    1    2 1     
    2    1   44 1     
    3    2    3 1     
    4    2   45 1     
    5    2   46 1     
    6    3    4 1     
    7    3   47 1     
    8    3   48 1     
    9    4    5 1     
   10    5    6 1     
   11    5   49 1     
   12    5   50 1     
   13    6    7 1     
   14    6   51 1     
   15    6   52 1     
   16    7    8 1     
   17    8    9 1     
   18    8   53 1     
   19    8   54 1     
   20    9   10 1     
   21    9   55 1     
   22    9   56 1     
   23   10   11 1     
   24   11   12 1     
   25   11   57 1     
   26   11   58 1     
   27   12   13 1     
   28   12   59 1     
   29   12   60 1     
   30   13   14 1     
   31   14   15 1     
   32   14   61 1     
   33   14   62 1     
   34   15   16 1     
   35   15   63 1     
   36   15   64 1     
   37   16   17 1     
   38   17   18 1     
   39   17   65 1     
   40   17   66 1     
   41   18   19 1     
   42   18   67 1     
   43   18   68 1     
   44   19   20 1     
   45   20   21 1     
   46   20   69 1     
   47   20   70 1     
   48   21   22 1     
   49   21   71 1     
   50   21   72 1     
   51   22   23 1     
   52   23   24 1     
   53   23   73 1     
   54   23   74 1     
   55   24   25 1     
   56   24   75 1     
   57   24   76 1     
   58   25   26 1     
   59   26   27 1     
   60   26   77 1     
   61   26   78 1     
   62   27   28 1     
   63   27   79 1     
   64   27   80 1     
   65   28   29 1     
   66   29   30 1     
   67   29   81 1     
   68   29   82 1     
   69   30   31 1     
   70   30   83 1     
   71   30   84 1     
   72   31   32 1     
   73   32   33 1     
   74   32   85 1     
   75   32   86 1     
   76   33   34 1     
   77   33   87 1     
   78   33   88 1     
   79   34   35 1     
   80   35   36 1     
   81   35   89 1     
   82   35   90 1     
   83   36   37 1     
   84   36   91 1     
   85   36   92 1     
   86   37   38 1     
   87   38   39 1     
   88   38   93 1     
   89   38   94 1     
   90   39   40 1     
   91   39   95 1     
   92   39   96 1     
   93   40   41 1     
   94   41   42 1     
   95   41   97 1     
   96   41   98 1     
   97   42   43 1     
   98   42   99 1     
   99   42  100 1     
  100   43  101 1     
@<TRIPOS>SUBSTRUCTURE
      1 ****           1
@<TRIPOS>SET
DONOR_HYDROGENS      STATIC     ATOMS    <user>   **** ""
2 44 101
ATOM$RED        STATIC     ATOMS    COLORGROUP SYSTEM
2 44 101
