#       Name:                PLD
#       Creating user name   gbret
#       Creation time:       Fri Sep  9 14:34:55 2016


#       File generated by GOLD software.
#

@<TRIPOS>MOLECULE
PLD
   160   159     1
SMALL
NO_CHARGES


@<TRIPOS>ATOM
      1 C1          10.4240  23.6034  -0.9808 C.3            1 <1>                0.0000
      2 C2          10.5335  22.0799  -1.0701 C.3            1 <1>                0.0000
      3 C3           9.1413  21.4798  -1.2763 C.3            1 <1>                0.0000
      4 C4           9.2509  19.9563  -1.3657 C.3            1 <1>                0.0000
      5 C5           7.8587  19.3561  -1.5719 C.3            1 <1>                0.0000
      6 C6           7.9682  17.8327  -1.6613 C.3            1 <1>                0.0000
      7 C7           6.5760  17.2325  -1.8675 C.3            1 <1>                0.0000
      8 C8           6.6855  15.7091  -1.9569 C.3            1 <1>                0.0000
      9 C9           5.2933  15.1089  -2.1631 C.3            1 <1>                0.0000
     10 C10          5.4028  13.5854  -2.2525 C.3            1 <1>                0.0000
     11 C11          4.0106  12.9853  -2.4587 C.3            1 <1>                0.0000
     12 C12          4.1201  11.4618  -2.5480 C.3            1 <1>                0.0000
     13 C13          2.7280  10.8617  -2.7542 C.3            1 <1>                0.0000
     14 C14          2.8375   9.3382  -2.8436 C.3            1 <1>                0.0000
     15 C15          1.4453   8.7380  -3.0498 C.3            1 <1>                0.0000
     16 C16          1.5548   7.2146  -3.1392 C.3            1 <1>                0.0000
     17 C17          0.1626   6.6144  -3.3454 C.3            1 <1>                0.0000
     18 C18          0.2721   5.0910  -3.4348 C.3            1 <1>                0.0000
     19 C19         -1.1201   4.4908  -3.6410 C.3            1 <1>                0.0000
     20 C20         -1.0106   2.9673  -3.7303 C.3            1 <1>                0.0000
     21 C21         -2.3818   2.3762  -3.9335 C.2            1 <1>                0.0000
     22 O22         -3.3476   3.0992  -3.9999 O.2            1 <1>                0.0000
     23 O23         -2.5303   1.0464  -4.0405 O.3            1 <1>                0.0000
     24 C24         -3.8799   0.5474  -4.2349 C.3            1 <1>                0.0000
     25 C25         -3.8499  -0.9791  -4.3339 C.3            1 <1>                0.0000
     26 C26         -2.8789  -1.3995  -5.4391 C.3            1 <1>                0.0000
     27 O27         -1.5966  -0.8191  -5.1927 O.3            1 <1>                0.0000
     28 P28         -0.3292  -1.0503  -6.1584 P.3            1 <1>                0.0000
     29 O29          0.0766  -2.5408  -6.1275 O.co2          1 <1>                0.0000
     30 O30         -0.7021  -0.6479  -7.6027 O.co2          1 <1>                0.0000
     31 O31          0.9037  -0.1478  -5.6511 O.3            1 <1>                0.0000
     32 C32          2.1411  -0.0517  -6.3594 C.3            1 <1>                0.0000
     33 C33          3.0887   0.8838  -5.6060 C.3            1 <1>                0.0000
     34 N34          3.4587   0.2751  -4.3212 N.4            1 <1>                0.0000
     35 C35          4.0071  -1.0674  -4.5553 C.3            1 <1>                0.0000
     36 C36          4.4702   1.1085  -3.6577 C.3            1 <1>                0.0000
     37 C37          2.2686   0.1756  -3.4658 C.3            1 <1>                0.0000
     38 O38         -3.4124  -1.5378  -3.0671 O.3            1 <1>                0.0000
     39 C39         -3.8855  -2.7507  -2.7402 C.2            1 <1>                0.0000
     40 O40         -4.6401  -3.3265  -3.4878 O.2            1 <1>                0.0000
     41 C41         -3.4754  -3.3943  -1.4407 C.3            1 <1>                0.0000
     42 C42         -4.1503  -4.7615  -1.3134 C.3            1 <1>                0.0000
     43 C43         -3.7339  -5.4149   0.0059 C.3            1 <1>                0.0000
     44 C44         -4.4088  -6.7821   0.1332 C.3            1 <1>                0.0000
     45 C45         -3.9925  -7.4355   1.4525 C.3            1 <1>                0.0000
     46 C46         -4.6673  -8.8027   1.5798 C.3            1 <1>                0.0000
     47 C47         -4.2510  -9.4561   2.8992 C.3            1 <1>                0.0000
     48 C48         -4.9258 -10.8233   3.0265 C.3            1 <1>                0.0000
     49 C49         -4.5095 -11.4767   4.3458 C.3            1 <1>                0.0000
     50 C50         -5.1844 -12.8439   4.4731 C.3            1 <1>                0.0000
     51 C51         -4.7680 -13.4973   5.7924 C.3            1 <1>                0.0000
     52 C52         -5.4429 -14.8645   5.9197 C.3            1 <1>                0.0000
     53 C53         -5.0265 -15.5179   7.2390 C.3            1 <1>                0.0000
     54 C54         -5.7014 -16.8851   7.3663 C.3            1 <1>                0.0000
     55 C55         -5.2851 -17.5385   8.6857 C.3            1 <1>                0.0000
     56 C56         -5.9599 -18.9057   8.8130 C.3            1 <1>                0.0000
     57 C57         -5.5436 -19.5591  10.1323 C.3            1 <1>                0.0000
     58 C58         -6.2185 -20.9263  10.2596 C.3            1 <1>                0.0000
     59 C59         -5.8021 -21.5797  11.5789 C.3            1 <1>                0.0000
     60 C60         -6.4770 -22.9469  11.7062 C.3            1 <1>                0.0000
     61 H61         11.4158  24.0310  -0.8339 H              1 <1>                0.0000
     62 H62          9.9942  23.9915  -1.9042 H              1 <1>                0.0000
     63 H63          9.7841  23.8730  -0.1406 H              1 <1>                0.0000
     64 H64         11.1735  21.8103  -1.9103 H              1 <1>                0.0000
     65 H65         10.9634  21.6918  -0.1468 H              1 <1>                0.0000
     66 H66          8.5014  21.7494  -0.4362 H              1 <1>                0.0000
     67 H67          8.7115  21.8679  -2.1997 H              1 <1>                0.0000
     68 H68          9.8908  19.6867  -2.2059 H              1 <1>                0.0000
     69 H69          9.6807  19.5681  -0.4423 H              1 <1>                0.0000
     70 H70          7.2187  19.6258  -0.7318 H              1 <1>                0.0000
     71 H71          7.4288  19.7443  -2.4953 H              1 <1>                0.0000
     72 H72          8.6081  17.5631  -2.5014 H              1 <1>                0.0000
     73 H73          8.3980  17.4445  -0.7379 H              1 <1>                0.0000
     74 H74          5.9360  17.5021  -1.0274 H              1 <1>                0.0000
     75 H75          6.1461  17.6207  -2.7909 H              1 <1>                0.0000
     76 H76          7.3255  15.4395  -2.7970 H              1 <1>                0.0000
     77 H77          7.1154  15.3209  -1.0335 H              1 <1>                0.0000
     78 H78          4.6533  15.3785  -1.3229 H              1 <1>                0.0000
     79 H79          4.8634  15.4971  -3.0865 H              1 <1>                0.0000
     80 H80          6.0428  13.3158  -3.0926 H              1 <1>                0.0000
     81 H81          5.8327  13.1973  -1.3291 H              1 <1>                0.0000
     82 H82          3.3707  13.2549  -1.6185 H              1 <1>                0.0000
     83 H83          3.5808  13.3734  -3.3821 H              1 <1>                0.0000
     84 H84          4.7601  11.1922  -3.3882 H              1 <1>                0.0000
     85 H85          4.5500  11.0737  -1.6246 H              1 <1>                0.0000
     86 H86          2.0880  11.1313  -1.9141 H              1 <1>                0.0000
     87 H87          2.2981  11.2498  -3.6776 H              1 <1>                0.0000
     88 H88          3.4774   9.0686  -3.6838 H              1 <1>                0.0000
     89 H89          3.2673   8.9500  -1.9202 H              1 <1>                0.0000
     90 H90          0.8053   9.0076  -2.2097 H              1 <1>                0.0000
     91 H91          1.0154   9.1262  -3.9732 H              1 <1>                0.0000
     92 H92          2.1948   6.9450  -3.9793 H              1 <1>                0.0000
     93 H93          1.9846   6.8264  -2.2158 H              1 <1>                0.0000
     94 H94         -0.4774   6.8840  -2.5053 H              1 <1>                0.0000
     95 H95         -0.2673   7.0026  -4.2688 H              1 <1>                0.0000
     96 H96          0.9121   4.8213  -4.2749 H              1 <1>                0.0000
     97 H97          0.7020   4.7028  -2.5114 H              1 <1>                0.0000
     98 H98         -1.7601   4.7604  -2.8008 H              1 <1>                0.0000
     99 H99         -1.5499   4.8790  -4.5644 H              1 <1>                0.0000
    100 H100        -0.3706   2.6977  -4.5705 H              1 <1>                0.0000
    101 H101        -0.5807   2.5792  -2.8070 H              1 <1>                0.0000
    102 H102        -4.5022   0.8445  -3.3908 H              1 <1>                0.0000
    103 H103        -4.2921   0.9631  -5.1543 H              1 <1>                0.0000
    104 H104        -4.8486  -1.3478  -4.5681 H              1 <1>                0.0000
    105 H105        -2.7900  -2.4858  -5.4508 H              1 <1>                0.0000
    106 H106        -3.2544  -1.0553  -6.4028 H              1 <1>                0.0000
    107 H107         2.5928  -1.0406  -6.4376 H              1 <1>                0.0000
    108 H108         1.9580   0.3442  -7.3584 H              1 <1>                0.0000
    109 H109         3.9865   1.0486  -6.2018 H              1 <1>                0.0000
    110 H110         2.5917   1.8372  -5.4266 H              1 <1>                0.0000
    111 H111         4.8902  -0.9935  -5.1900 H              1 <1>                0.0000
    112 H112         4.2816  -1.5190  -3.6020 H              1 <1>                0.0000
    113 H113         3.2566  -1.6858  -5.0476 H              1 <1>                0.0000
    114 H114         4.0632   2.1047  -3.4840 H              1 <1>                0.0000
    115 H115         4.7447   0.6569  -2.7044 H              1 <1>                0.0000
    116 H116         5.3533   1.1824  -4.2924 H              1 <1>                0.0000
    117 H117         1.6022  -0.5925  -3.8584 H              1 <1>                0.0000
    118 H118         2.5706  -0.0889  -2.4524 H              1 <1>                0.0000
    119 H119         1.7499   1.1341  -3.4519 H              1 <1>                0.0000
    120 H120        -2.3929  -3.5204  -1.4235 H              1 <1>                0.0000
    121 H121        -3.7805  -2.7596  -0.6087 H              1 <1>                0.0000
    122 H122        -5.2328  -4.6353  -1.3307 H              1 <1>                0.0000
    123 H123        -3.8451  -5.3962  -2.1454 H              1 <1>                0.0000
    124 H124        -2.6514  -5.5410   0.0232 H              1 <1>                0.0000
    125 H125        -4.0391  -4.7802   0.8379 H              1 <1>                0.0000
    126 H126        -5.4913  -6.6559   0.1160 H              1 <1>                0.0000
    127 H127        -4.1037  -7.4168  -0.6988 H              1 <1>                0.0000
    128 H128        -2.9099  -7.5616   1.4698 H              1 <1>                0.0000
    129 H129        -4.2976  -6.8008   2.2845 H              1 <1>                0.0000
    130 H130        -5.7499  -8.6765   1.5626 H              1 <1>                0.0000
    131 H131        -4.3622  -9.4374   0.7479 H              1 <1>                0.0000
    132 H132        -3.1684  -9.5822   2.9164 H              1 <1>                0.0000
    133 H133        -4.5561  -8.8214   3.7311 H              1 <1>                0.0000
    134 H134        -6.0084 -10.6971   3.0092 H              1 <1>                0.0000
    135 H135        -4.6207 -11.4580   2.1945 H              1 <1>                0.0000
    136 H136        -3.4270 -11.6029   4.3630 H              1 <1>                0.0000
    137 H137        -4.8146 -10.8420   5.1778 H              1 <1>                0.0000
    138 H138        -6.2669 -12.7177   4.4558 H              1 <1>                0.0000
    139 H139        -4.8792 -13.4786   3.6411 H              1 <1>                0.0000
    140 H140        -3.6855 -13.6235   5.8097 H              1 <1>                0.0000
    141 H141        -5.0732 -12.8626   6.6244 H              1 <1>                0.0000
    142 H142        -6.5254 -14.7384   5.9025 H              1 <1>                0.0000
    143 H143        -5.1378 -15.4992   5.0877 H              1 <1>                0.0000
    144 H144        -3.9440 -15.6441   7.2563 H              1 <1>                0.0000
    145 H145        -5.3317 -14.8832   8.0710 H              1 <1>                0.0000
    146 H146        -6.7840 -16.7590   7.3491 H              1 <1>                0.0000
    147 H147        -5.3963 -17.5198   6.5344 H              1 <1>                0.0000
    148 H148        -4.2025 -17.6647   8.7029 H              1 <1>                0.0000
    149 H149        -5.5902 -16.9038   9.5176 H              1 <1>                0.0000
    150 H150        -7.0425 -18.7796   8.7957 H              1 <1>                0.0000
    151 H151        -5.6548 -19.5404   7.9810 H              1 <1>                0.0000
    152 H152        -4.4611 -19.6853  10.1495 H              1 <1>                0.0000
    153 H153        -5.8487 -18.9244  10.9643 H              1 <1>                0.0000
    154 H154        -7.3010 -20.8002  10.2423 H              1 <1>                0.0000
    155 H155        -5.9133 -21.5610   9.4276 H              1 <1>                0.0000
    156 H156        -4.7196 -21.7059  11.5962 H              1 <1>                0.0000
    157 H157        -6.1073 -20.9450  12.4109 H              1 <1>                0.0000
    158 H158        -6.1804 -23.4124  12.6461 H              1 <1>                0.0000
    159 H159        -7.5595 -22.8208  11.6890 H              1 <1>                0.0000
    160 H160        -6.1719 -23.5816  10.8742 H              1 <1>                0.0000
@<TRIPOS>BOND
    1    1    2 1     
    2    1   61 1     
    3    1   62 1     
    4    1   63 1     
    5    2    3 1     
    6    2   64 1     
    7    2   65 1     
    8    3    4 1     
    9    3   66 1     
   10    3   67 1     
   11    4    5 1     
   12    4   68 1     
   13    4   69 1     
   14    5    6 1     
   15    5   70 1     
   16    5   71 1     
   17    6    7 1     
   18    6   72 1     
   19    6   73 1     
   20    7    8 1     
   21    7   74 1     
   22    7   75 1     
   23    8    9 1     
   24    8   76 1     
   25    8   77 1     
   26    9   10 1     
   27    9   78 1     
   28    9   79 1     
   29   10   11 1     
   30   10   80 1     
   31   10   81 1     
   32   11   12 1     
   33   11   82 1     
   34   11   83 1     
   35   12   13 1     
   36   12   84 1     
   37   12   85 1     
   38   13   14 1     
   39   13   86 1     
   40   13   87 1     
   41   14   15 1     
   42   14   88 1     
   43   14   89 1     
   44   15   16 1     
   45   15   90 1     
   46   15   91 1     
   47   16   17 1     
   48   16   92 1     
   49   16   93 1     
   50   17   18 1     
   51   17   94 1     
   52   17   95 1     
   53   18   19 1     
   54   18   96 1     
   55   18   97 1     
   56   19   20 1     
   57   19   98 1     
   58   19   99 1     
   59   20   21 1     
   60   20  100 1     
   61   20  101 1     
   62   21   22 2     
   63   21   23 1     
   64   23   24 1     
   65   24   25 1     
   66   24  102 1     
   67   24  103 1     
   68   25   26 1     
   69   25   38 1     
   70   25  104 1     
   71   26   27 1     
   72   26  105 1     
   73   26  106 1     
   74   27   28 1     
   75   28   29 ar    
   76   28   30 ar    
   77   28   31 1     
   78   31   32 1     
   79   32   33 1     
   80   32  107 1     
   81   32  108 1     
   82   33   34 1     
   83   33  109 1     
   84   33  110 1     
   85   34   35 1     
   86   34   36 1     
   87   34   37 1     
   88   35  111 1     
   89   35  112 1     
   90   35  113 1     
   91   36  114 1     
   92   36  115 1     
   93   36  116 1     
   94   37  117 1     
   95   37  118 1     
   96   37  119 1     
   97   38   39 1     
   98   39   40 2     
   99   39   41 1     
  100   41   42 1     
  101   41  120 1     
  102   41  121 1     
  103   42   43 1     
  104   42  122 1     
  105   42  123 1     
  106   43   44 1     
  107   43  124 1     
  108   43  125 1     
  109   44   45 1     
  110   44  126 1     
  111   44  127 1     
  112   45   46 1     
  113   45  128 1     
  114   45  129 1     
  115   46   47 1     
  116   46  130 1     
  117   46  131 1     
  118   47   48 1     
  119   47  132 1     
  120   47  133 1     
  121   48   49 1     
  122   48  134 1     
  123   48  135 1     
  124   49   50 1     
  125   49  136 1     
  126   49  137 1     
  127   50   51 1     
  128   50  138 1     
  129   50  139 1     
  130   51   52 1     
  131   51  140 1     
  132   51  141 1     
  133   52   53 1     
  134   52  142 1     
  135   52  143 1     
  136   53   54 1     
  137   53  144 1     
  138   53  145 1     
  139   54   55 1     
  140   54  146 1     
  141   54  147 1     
  142   55   56 1     
  143   55  148 1     
  144   55  149 1     
  145   56   57 1     
  146   56  150 1     
  147   56  151 1     
  148   57   58 1     
  149   57  152 1     
  150   57  153 1     
  151   58   59 1     
  152   58  154 1     
  153   58  155 1     
  154   59   60 1     
  155   59  156 1     
  156   59  157 1     
  157   60  158 1     
  158   60  159 1     
  159   60  160 1     
@<TRIPOS>SUBSTRUCTURE
      1 ****           1
