#       Name:                PMM
#       Creating user name   gbret
#       Creation time:       Fri Sep  9 14:37:48 2016


#       File generated by GOLD software.
#

@<TRIPOS>MOLECULE
PMM
    24    25     1
SMALL
NO_CHARGES


@<TRIPOS>ATOM
      1 N1           0.9278   4.9306   0.0233 N.pl3          1 <1>                0.0000
      2 C2           0.9464   3.5600   0.0157 C.2            1 <1>                0.0000
      3 N3          -0.1970   2.9204   0.0179 N.2            1 <1>                0.0000
      4 C4          -0.2564   1.5758   0.0109 C.ar           1 <1>                0.0000
      5 N5          -1.4233   0.9302   0.0126 N.ar           1 <1>                0.0000
      6 C6          -1.4392  -0.3879   0.0052 C.ar           1 <1>                0.0000
      7 C7          -0.2515  -1.1128  -0.0041 C.ar           1 <1>                0.0000
      8 C8          -0.2952  -2.6192  -0.0119 C.3            1 <1>                0.0000
      9 O9          -1.6556  -3.0563  -0.0081 O.3            1 <1>                0.0000
     10 P10         -2.0775  -4.6101  -0.0146 P.3            1 <1>                0.0000
     11 O11         -1.6058  -5.2847   1.3184 O.co2          1 <1>                0.0000
     12 O12         -3.6349  -4.7279  -0.1369 O.co2          1 <1>                0.0000
     13 O13         -1.4021  -5.3295  -1.2314 O.co2          1 <1>                0.0000
     14 N14          0.9113  -0.4925  -0.0064 N.ar           1 <1>                0.0000
     15 C15          0.9466   0.8332   0.0010 C.ar           1 <1>                0.0000
     16 C16          2.2191   1.5752  -0.0018 C.2            1 <1>                0.0000
     17 O17          3.2885   0.9946  -0.0106 O.2            1 <1>                0.0000
     18 N18          2.1540   2.9269   0.0008 N.am           1 <1>                0.0000
     19 H19          2.9717   3.4487  -0.0012 H              1 <1>                0.0000
     20 H20          1.7611   5.4269   0.0180 H              1 <1>                0.0000
     21 H21          0.0813   5.4041   0.0297 H              1 <1>                0.0000
     22 H22         -2.3842  -0.9108   0.0066 H              1 <1>                0.0000
     23 H23          0.2039  -2.9925  -0.9062 H              1 <1>                0.0000
     24 H24          0.2119  -3.0020   0.8737 H              1 <1>                0.0000
@<TRIPOS>BOND
    1    1    2 1     
    2    1   20 1     
    3    1   21 1     
    4    2   18 1     
    5    2    3 2     
    6    3    4 1     
    7    4   15 ar    
    8    4    5 ar    
    9    5    6 ar    
   10    6    7 ar    
   11    6   22 1     
   12    7    8 1     
   13    7   14 ar    
   14    8    9 1     
   15    8   23 1     
   16    8   24 1     
   17    9   10 1     
   18   10   11 ar    
   19   10   12 ar    
   20   10   13 ar    
   21   14   15 ar    
   22   15   16 1     
   23   16   17 2     
   24   16   18 am    
   25   18   19 1     
@<TRIPOS>SUBSTRUCTURE
      1 ****           1
@<TRIPOS>SET
DONOR_HYDROGENS      STATIC     ATOMS    <user>   **** ""
3 20 21 19
ATOM$RED        STATIC     ATOMS    COLORGROUP SYSTEM
3 20 21 19
