#       Name:                PN2
#       Creating user name   gbret
#       Creation time:       Fri Sep  9 14:38:49 2016


#       File generated by GOLD software.
#

@<TRIPOS>MOLECULE
PN2
    53    52     1
SMALL
NO_CHARGES


@<TRIPOS>ATOM
      1 C1           2.0142  -0.2523   1.0879 C.3            1 <1>                0.0000
      2 C2           1.9994  -1.7588   0.8212 C.3            1 <1>                0.0000
      3 C3           2.7028  -2.4868   1.9684 C.3            1 <1>                0.0000
      4 C4           0.5521  -2.2446   0.7202 C.3            1 <1>                0.0000
      5 O5          -0.1288  -1.9713   1.9464 O.3            1 <1>                0.0000
      6 P6          -1.6739  -2.3496   2.1947 P.3            1 <1>                0.0000
      7 O7          -2.5659  -1.5243   1.2406 O.co2          1 <1>                0.0000
      8 O8          -1.8853  -3.8559   1.9234 O.co2          1 <1>                0.0000
      9 O9          -2.0692  -2.0184   3.7198 O.3            1 <1>                0.0000
     10 C10         -3.3438  -2.3392   4.2808 C.3            1 <1>                0.0000
     11 C11         -3.3848  -1.8963   5.7206 C.2            1 <1>                0.0000
     12 N12         -2.8830  -2.7312   6.7234 N.4            1 <1>                0.0000
     13 H13         -1.9039  -2.5340   6.8666 H              1 <1>                0.0000
     14 H14         -3.3881  -2.5675   7.5813 H              1 <1>                0.0000
     15 H15         -2.9948  -3.6949   6.4459 H              1 <1>                0.0000
     16 C16         -3.8895  -0.7316   6.0319 C.1            1 <1>                0.0000
     17 O17         -4.3560   0.3450   6.3196 O.2            1 <1>                0.0000
     18 C18          2.7284  -2.0515  -0.4917 C.3            1 <1>                0.0000
     19 O19          2.8317  -3.4650  -0.6744 O.3            1 <1>                0.0000
     20 C20          1.9572  -1.4517  -1.6391 C.2            1 <1>                0.0000
     21 O21          1.4114  -2.1739  -2.4462 O.2            1 <1>                0.0000
     22 N22          1.8739  -0.1127  -1.7683 N.am           1 <1>                0.0000
     23 C23          1.0452   0.4710  -2.8260 C.3            1 <1>                0.0000
     24 C24          1.1249   1.9972  -2.7526 C.3            1 <1>                0.0000
     25 C25          0.2724   2.5976  -3.8406 C.2            1 <1>                0.0000
     26 O26         -0.3388   1.8759  -4.5999 O.2            1 <1>                0.0000
     27 N27          0.1891   3.9366  -3.9698 N.am           1 <1>                0.0000
     28 C28         -0.6396   4.5203  -5.0275 C.3            1 <1>                0.0000
     29 C29         -0.5599   6.0465  -4.9541 C.3            1 <1>                0.0000
     30 S30         -1.5861   6.7692  -6.2637 S.3            1 <1>                0.0000
     31 H31          3.0400   0.1139   1.0467 H              1 <1>                0.0000
     32 H32          1.4161   0.2565   0.3319 H              1 <1>                0.0000
     33 H33          1.5970  -0.0540   2.0752 H              1 <1>                0.0000
     34 H34          2.1489  -2.3277   2.8936 H              1 <1>                0.0000
     35 H35          2.7458  -3.5537   1.7496 H              1 <1>                0.0000
     36 H36          3.7149  -2.0975   2.0794 H              1 <1>                0.0000
     37 H37          0.0510  -1.7260  -0.0971 H              1 <1>                0.0000
     38 H38          0.5415  -3.3179   0.5302 H              1 <1>                0.0000
     39 H39         -4.1264  -1.8274   3.7207 H              1 <1>                0.0000
     40 H40         -3.5036  -3.4161   4.2272 H              1 <1>                0.0000
     41 H41          3.7269  -1.6156  -0.4578 H              1 <1>                0.0000
     42 H42          1.9792  -3.9198  -0.7138 H              1 <1>                0.0000
     43 H43          2.3627   0.4645  -1.1609 H              1 <1>                0.0000
     44 H44          1.4063   0.1346  -3.7978 H              1 <1>                0.0000
     45 H45          0.0106   0.1544  -2.6933 H              1 <1>                0.0000
     46 H46          0.7637   2.3335  -1.7807 H              1 <1>                0.0000
     47 H47          2.1594   2.3138  -2.8852 H              1 <1>                0.0000
     48 H48          0.6779   4.5138  -3.3624 H              1 <1>                0.0000
     49 H49         -0.2785   4.1839  -5.9993 H              1 <1>                0.0000
     50 H50         -1.6742   4.2037  -4.8948 H              1 <1>                0.0000
     51 H51         -0.9211   6.3828  -3.9822 H              1 <1>                0.0000
     52 H52          0.4746   6.3631  -5.0867 H              1 <1>                0.0000
     53 H53         -1.4227   8.0917  -6.0810 H              1 <1>                0.0000
@<TRIPOS>BOND
    1    1    2 1     
    2    1   31 1     
    3    1   32 1     
    4    1   33 1     
    5    2    3 1     
    6    2    4 1     
    7    2   18 1     
    8    3   34 1     
    9    3   35 1     
   10    3   36 1     
   11    4    5 1     
   12    4   37 1     
   13    4   38 1     
   14    5    6 1     
   15    6    7 ar    
   16    6    8 ar    
   17    6    9 1     
   18    9   10 1     
   19   10   11 1     
   20   10   39 1     
   21   10   40 1     
   22   11   12 1     
   23   11   16 2     
   24   12   13 1     
   25   12   14 1     
   26   12   15 1     
   27   16   17 2     
   28   18   19 1     
   29   18   20 1     
   30   18   41 1     
   31   19   42 1     
   32   20   21 2     
   33   20   22 am    
   34   22   23 1     
   35   22   43 1     
   36   23   24 1     
   37   23   44 1     
   38   23   45 1     
   39   24   25 1     
   40   24   46 1     
   41   24   47 1     
   42   25   26 2     
   43   25   27 am    
   44   27   28 1     
   45   27   48 1     
   46   28   29 1     
   47   28   49 1     
   48   28   50 1     
   49   29   30 1     
   50   29   51 1     
   51   29   52 1     
   52   30   53 1     
@<TRIPOS>SUBSTRUCTURE
      1 ****           1
@<TRIPOS>SET
DONOR_HYDROGENS      STATIC     ATOMS    <user>   **** ""
6 13 14 15 42 43 48
ATOM$RED        STATIC     ATOMS    COLORGROUP SYSTEM
6 13 14 15 42 43 48
