#       Name:                PNB
#       Creating user name   gbret
#       Creation time:       Fri Sep  9 14:39:19 2016


#       File generated by GOLD software.
#

@<TRIPOS>MOLECULE
PNB
    39    39     1
SMALL
NO_CHARGES


@<TRIPOS>ATOM
      1 O1           8.1783   0.1803   0.1527 O.co2          1 <1>                0.0000
      2 C2           8.1617   1.3994   0.1594 C.2            1 <1>                0.0000
      3 O3           9.2092   2.0233   0.1528 O.co2          1 <1>                0.0000
      4 C4           6.8466   2.1351   0.1697 C.3            1 <1>                0.0000
      5 N5           5.7461   1.1681   0.1696 N.am           1 <1>                0.0000
      6 C6           4.4694   1.6000   0.1780 C.2            1 <1>                0.0000
      7 O7           4.2317   2.7893   0.1856 O.2            1 <1>                0.0000
      8 C8           3.3374   0.6053   0.1780 C.3            1 <1>                0.0000
      9 C9           2.0021   1.3522   0.1884 C.3            1 <1>                0.0000
     10 C10          0.8528   0.3422   0.1883 C.3            1 <1>                0.0000
     11 P11         -0.7382   1.2322   0.2007 P.3            1 <1>                0.0000
     12 O12         -0.8808   2.0137   1.5258 O.co2          1 <1>                0.0000
     13 O13         -0.7854   2.2192  -0.9869 O.co2          1 <1>                0.0000
     14 O14         -1.9454   0.1752   0.0684 O.3            1 <1>                0.0000
     15 C15         -3.3136   0.5680  -0.0563 C.3            1 <1>                0.0000
     16 C16         -4.1814  -0.6597  -0.1589 C.ar           1 <1>                0.0000
     17 C17         -4.4608  -1.2072  -1.3970 C.ar           1 <1>                0.0000
     18 C18         -5.2568  -2.3335  -1.4911 C.ar           1 <1>                0.0000
     19 C19         -5.7731  -2.9125  -0.3470 C.ar           1 <1>                0.0000
     20 C20         -5.4930  -2.3655   0.8913 C.ar           1 <1>                0.0000
     21 C21         -4.6935  -1.2418   0.9857 C.ar           1 <1>                0.0000
     22 N22         -6.6263  -4.1178  -0.4478 N.pl3          1 <1>                0.0000
     23 O23         -6.8734  -4.5995  -1.5388 O.2            1 <1>                0.0000
     24 O24         -7.0812  -4.6280   0.5603 O.2            1 <1>                0.0000
     25 H25          6.7845   2.7561   1.0633 H              1 <1>                0.0000
     26 H26          6.7761   2.7657  -0.7166 H              1 <1>                0.0000
     27 H27          5.9362   0.2169   0.1635 H              1 <1>                0.0000
     28 H28          3.3994  -0.0157  -0.7157 H              1 <1>                0.0000
     29 H29          3.4078  -0.0254   1.0642 H              1 <1>                0.0000
     30 H30          1.9401   1.9731   1.0821 H              1 <1>                0.0000
     31 H31          1.9317   1.9828  -0.6979 H              1 <1>                0.0000
     32 H32          0.9148  -0.2787  -0.7053 H              1 <1>                0.0000
     33 H33          0.9233  -0.2884   1.0746 H              1 <1>                0.0000
     34 H34         -3.6064   1.1478   0.8191 H              1 <1>                0.0000
     35 H35         -3.4369   1.1760  -0.9526 H              1 <1>                0.0000
     36 H36         -4.0574  -0.7549  -2.2909 H              1 <1>                0.0000
     37 H37         -5.4756  -2.7608  -2.4585 H              1 <1>                0.0000
     38 H38         -5.8967  -2.8176   1.7852 H              1 <1>                0.0000
     39 H39         -4.4747  -0.8144   1.9531 H              1 <1>                0.0000
@<TRIPOS>BOND
    1    1    2 ar    
    2    2    3 ar    
    3    2    4 1     
    4    4    5 1     
    5    4   25 1     
    6    4   26 1     
    7    5    6 am    
    8    5   27 1     
    9    6    7 2     
   10    6    8 1     
   11    8    9 1     
   12    8   28 1     
   13    8   29 1     
   14    9   10 1     
   15    9   30 1     
   16    9   31 1     
   17   10   11 1     
   18   10   32 1     
   19   10   33 1     
   20   11   12 ar    
   21   11   13 ar    
   22   11   14 1     
   23   14   15 1     
   24   15   16 1     
   25   15   34 1     
   26   15   35 1     
   27   16   21 ar    
   28   16   17 ar    
   29   17   18 ar    
   30   17   36 1     
   31   18   19 ar    
   32   18   37 1     
   33   19   20 ar    
   34   19   22 1     
   35   20   21 ar    
   36   20   38 1     
   37   21   39 1     
   38   22   23 2     
   39   22   24 2     
@<TRIPOS>SUBSTRUCTURE
      1 ****           1
@<TRIPOS>SET
DONOR_HYDROGENS      STATIC     ATOMS    <user>   **** ""
1 27
ATOM$RED        STATIC     ATOMS    COLORGROUP SYSTEM
1 27
