#       Name:                PON
#       Creating user name   gbret
#       Creation time:       Fri Sep  9 14:41:52 2016


#       File generated by GOLD software.
#

@<TRIPOS>MOLECULE
PON
    12    11     1
SMALL
NO_CHARGES


@<TRIPOS>ATOM
      1 O1          -0.1553   1.7004  -0.9079 O.3            1 <1>                0.0000
      2 P2          -0.1334   0.0905  -0.9168 P.3            1 <1>                0.0000
      3 O3          -1.6439  -0.4667  -0.9054 O.3            1 <1>                0.0000
      4 N4           0.5937  -0.4105  -2.1949 N.2            1 <1>                0.0000
      5 O5           0.6453  -0.4428   0.3876 O.3            1 <1>                0.0000
      6 P6           0.4132  -0.2815   1.9726 P.3            1 <1>                0.0000
      7 O7          -0.6939  -1.2853   2.4431 O.co2          1 <1>                0.0000
      8 O8           1.7504  -0.5862   2.7298 O.co2          1 <1>                0.0000
      9 O9          -0.0428   1.1840   2.2871 O.co2          1 <1>                0.0000
     10 H10          0.7227   2.1057  -0.9141 H              1 <1>                0.0000
     11 H11         -1.7071  -1.4317  -0.9099 H              1 <1>                0.0000
     12 H12          0.2508  -0.1759  -3.0715 H              1 <1>                0.0000
@<TRIPOS>BOND
    1    1    2 1     
    2    1   10 1     
    3    2    3 1     
    4    2    4 2     
    5    2    5 1     
    6    3   11 1     
    7    4   12 1     
    8    5    6 1     
    9    6    7 ar    
   10    6    8 ar    
   11    6    9 ar    
@<TRIPOS>SUBSTRUCTURE
      1 ****           1
@<TRIPOS>SET
DONOR_HYDROGENS      STATIC     ATOMS    <user>   **** ""
3 10 11 12
ATOM$RED        STATIC     ATOMS    COLORGROUP SYSTEM
3 10 11 12
