#       Name:                PPJ
#       Creating user name   gbret
#       Creation time:       Fri Sep  9 14:44:00 2016


#       File generated by GOLD software.
#

@<TRIPOS>MOLECULE
PPJ
    40    40     1
SMALL
NO_CHARGES


@<TRIPOS>ATOM
      1 C1          -0.7760   4.4528  -1.3555 C.3            1 <1>                0.0000
      2 C2          -0.7552   2.9229  -1.3639 C.3            1 <1>                0.0000
      3 O3          -0.0641   2.4496  -0.2062 O.3            1 <1>                0.0000
      4 C4          -2.1906   2.3934  -1.3530 C.3            1 <1>                0.0000
      5 C5          -2.1730   0.8693  -1.4871 C.3            1 <1>                0.0000
      6 N6          -1.5344   0.2826  -0.3063 N.2            1 <1>                0.0000
      7 C7          -0.4701  -0.4398  -0.4387 C.2            1 <1>                0.0000
      8 C8           0.1732  -1.0309   0.7509 C.ar           1 <1>                0.0000
      9 C9           1.3294  -1.8115   0.6316 C.ar           1 <1>                0.0000
     10 C10          1.9441  -2.0649  -0.7208 C.3            1 <1>                0.0000
     11 O11          3.1059  -2.8832  -0.5702 O.3            1 <1>                0.0000
     12 P12          4.0149  -3.3528  -1.8133 P.3            1 <1>                0.0000
     13 O13          4.6883  -2.1001  -2.4704 O.co2          1 <1>                0.0000
     14 O14          5.1241  -4.3365  -1.3069 O.co2          1 <1>                0.0000
     15 O15          3.1169  -4.0786  -2.8721 O.co2          1 <1>                0.0000
     16 C16          1.8980  -2.3448   1.7694 C.ar           1 <1>                0.0000
     17 N17          1.3700  -2.1302   2.9592 N.ar           1 <1>                0.0000
     18 C18          0.2839  -1.4034   3.1232 C.ar           1 <1>                0.0000
     19 C19         -0.2701  -1.1953   4.5092 C.3            1 <1>                0.0000
     20 C20         -0.3533  -0.8220   2.0358 C.ar           1 <1>                0.0000
     21 O21         -1.4723  -0.0739   2.2102 O.3            1 <1>                0.0000
     22 C22         -3.5863   0.3586  -1.5999 C.2            1 <1>                0.0000
     23 O23         -4.1078   0.2450  -2.6961 O.co2          1 <1>                0.0000
     24 O24         -4.2082   0.0590  -0.5949 O.co2          1 <1>                0.0000
     25 H25          0.2466   4.8301  -1.3632 H              1 <1>                0.0000
     26 H26         -1.3032   4.8138  -2.2385 H              1 <1>                0.0000
     27 H27         -1.2862   4.8043  -0.4587 H              1 <1>                0.0000
     28 H28         -0.2450   2.5714  -2.2607 H              1 <1>                0.0000
     29 H29          0.8541   2.7470  -0.1472 H              1 <1>                0.0000
     30 H30         -2.6729   2.6700  -0.4155 H              1 <1>                0.0000
     31 H31         -2.7435   2.8251  -2.1873 H              1 <1>                0.0000
     32 H32         -1.6132   0.5896  -2.3796 H              1 <1>                0.0000
     33 H33         -0.0519  -0.6106  -1.4196 H              1 <1>                0.0000
     34 H34          1.2215  -2.5738  -1.3588 H              1 <1>                0.0000
     35 H35          2.2251  -1.1152  -1.1759 H              1 <1>                0.0000
     36 H36          2.7897  -2.9482   1.6849 H              1 <1>                0.0000
     37 H37          0.1757  -0.3030   4.9485 H              1 <1>                0.0000
     38 H38         -1.3516  -1.0713   4.4533 H              1 <1>                0.0000
     39 H39         -0.0352  -2.0613   5.1281 H              1 <1>                0.0000
     40 H40         -1.2983   0.8661   2.3555 H              1 <1>                0.0000
@<TRIPOS>BOND
    1    1    2 1     
    2    1   25 1     
    3    1   26 1     
    4    1   27 1     
    5    2    3 1     
    6    2    4 1     
    7    2   28 1     
    8    3   29 1     
    9    4    5 1     
   10    4   30 1     
   11    4   31 1     
   12    5    6 1     
   13    5   22 1     
   14    5   32 1     
   15    6    7 2     
   16    7    8 1     
   17    7   33 1     
   18    8   20 ar    
   19    8    9 ar    
   20    9   10 1     
   21    9   16 ar    
   22   10   11 1     
   23   10   34 1     
   24   10   35 1     
   25   11   12 1     
   26   12   13 ar    
   27   12   14 ar    
   28   12   15 ar    
   29   16   17 ar    
   30   16   36 1     
   31   17   18 ar    
   32   18   19 1     
   33   18   20 ar    
   34   19   37 1     
   35   19   38 1     
   36   19   39 1     
   37   20   21 1     
   38   21   40 1     
   39   22   23 ar    
   40   22   24 ar    
@<TRIPOS>SUBSTRUCTURE
      1 ****           1
@<TRIPOS>SET
DONOR_HYDROGENS      STATIC     ATOMS    <user>   **** ""
2 29 40
ATOM$RED        STATIC     ATOMS    COLORGROUP SYSTEM
2 29 40
