#       Name:                PRL
#       Creating user name   gbret
#       Creation time:       Fri Sep  9 14:47:13 2016


#       File generated by GOLD software.
#

@<TRIPOS>MOLECULE
PRL
    27    29     1
SMALL
NO_CHARGES


@<TRIPOS>ATOM
      1 N1          -1.3806   4.7339   0.0338 N.pl3          1 <1>                0.0000
      2 C2          -1.3617   3.3412   0.0261 C.ar           1 <1>                0.0000
      3 C3          -2.5754   2.6394   0.0282 C.ar           1 <1>                0.0000
      4 C4          -2.6091   1.2838   0.0214 C.ar           1 <1>                0.0000
      5 C5          -1.4024   0.5538   0.0115 C.ar           1 <1>                0.0000
      6 C6          -1.4034  -0.8429   0.0037 C.ar           1 <1>                0.0000
      7 C7          -0.1700  -1.4981  -0.0063 C.ar           1 <1>                0.0000
      8 C8          -0.0926  -2.9064  -0.0150 C.ar           1 <1>                0.0000
      9 C9           1.1200  -3.5135  -0.0250 C.ar           1 <1>                0.0000
     10 C10          2.3098  -2.7718  -0.0264 C.ar           1 <1>                0.0000
     11 N11          3.5303  -3.4427  -0.0368 N.pl3          1 <1>                0.0000
     12 C12          2.2987  -1.3963  -0.0183 C.ar           1 <1>                0.0000
     13 C13          1.0679  -0.7120  -0.0082 C.ar           1 <1>                0.0000
     14 N14          1.0284   0.6177  -0.0007 N.ar           1 <1>                0.0000
     15 C15         -0.1268   1.2773   0.0089 C.ar           1 <1>                0.0000
     16 C16         -0.1527   2.6853   0.0111 C.ar           1 <1>                0.0000
     17 H17         -0.5473   5.2303   0.0285 H              1 <1>                0.0000
     18 H18         -2.2271   5.2074   0.0403 H              1 <1>                0.0000
     19 H19         -3.5041   3.1907   0.0357 H              1 <1>                0.0000
     20 H20         -3.5564   0.7651   0.0239 H              1 <1>                0.0000
     21 H21         -2.3292  -1.3989   0.0058 H              1 <1>                0.0000
     22 H22         -0.9955  -3.4989  -0.0134 H              1 <1>                0.0000
     23 H23          1.1703  -4.5923  -0.0317 H              1 <1>                0.0000
     24 H24          3.5506  -4.4125  -0.0430 H              1 <1>                0.0000
     25 H25          4.3599  -2.9402  -0.0380 H              1 <1>                0.0000
     26 H26          3.2274  -0.8450  -0.0199 H              1 <1>                0.0000
     27 H27          0.7702   3.2461   0.0046 H              1 <1>                0.0000
@<TRIPOS>BOND
    1    1    2 1     
    2    1   17 1     
    3    1   18 1     
    4    2   16 ar    
    5    2    3 ar    
    6    3    4 ar    
    7    3   19 1     
    8    4    5 ar    
    9    4   20 1     
   10    5   15 ar    
   11    5    6 ar    
   12    6    7 ar    
   13    6   21 1     
   14    7   13 ar    
   15    7    8 ar    
   16    8    9 ar    
   17    8   22 1     
   18    9   10 ar    
   19    9   23 1     
   20   10   11 1     
   21   10   12 ar    
   22   11   24 1     
   23   11   25 1     
   24   12   13 ar    
   25   12   26 1     
   26   13   14 ar    
   27   14   15 ar    
   28   15   16 ar    
   29   16   27 1     
@<TRIPOS>SUBSTRUCTURE
      1 ****           1
@<TRIPOS>SET
DONOR_HYDROGENS      STATIC     ATOMS    <user>   **** ""
4 17 18 24 25
ATOM$RED        STATIC     ATOMS    COLORGROUP SYSTEM
4 17 18 24 25
