#       Name:                PS4
#       Creating user name   gbret
#       Creation time:       Fri Sep  9 14:48:28 2016


#       File generated by GOLD software.
#

@<TRIPOS>MOLECULE
PS4
    61    63     1
SMALL
NO_CHARGES


@<TRIPOS>ATOM
      1 C1           3.9216   4.4425   6.9059 C.3            1 <1>                0.0000
      2 S2           2.7458   5.2916   5.8165 S.o2           1 <1>                0.0000
      3 O3           1.4151   4.8857   6.1061 O.2            1 <1>                0.0000
      4 O4           3.0822   6.6668   5.6950 O.2            1 <1>                0.0000
      5 C5           3.0658   4.6231   4.2180 C.ar           1 <1>                0.0000
      6 C6           4.0035   5.2212   3.3946 C.ar           1 <1>                0.0000
      7 C7           4.2610   4.7024   2.1383 C.ar           1 <1>                0.0000
      8 C8           3.5832   3.5841   1.6981 C.ar           1 <1>                0.0000
      9 C9           2.6363   2.9761   2.5235 C.ar           1 <1>                0.0000
     10 C10          2.3853   3.5013   3.7923 C.ar           1 <1>                0.0000
     11 C11          1.9059   1.7778   2.0582 C.2            1 <1>                0.0000
     12 O12          1.0817   1.2503   2.7793 O.2            1 <1>                0.0000
     13 N13          2.1539   1.2704   0.8345 N.am           1 <1>                0.0000
     14 C14          1.4301   0.0830   0.3734 C.3            1 <1>                0.0000
     15 C15          1.8043  -0.2095  -1.0810 C.3            1 <1>                0.0000
     16 C16          3.2811  -0.6495  -1.1647 C.3            1 <1>                0.0000
     17 C17          3.2514  -1.7625  -2.2453 C.3            1 <1>                0.0000
     18 C18          1.8826  -2.4315  -1.9652 C.3            1 <1>                0.0000
     19 N19          0.9883  -1.3199  -1.5936 N.am           1 <1>                0.0000
     20 C20         -0.3549  -1.3215  -1.7049 C.2            1 <1>                0.0000
     21 O21         -0.9853  -0.3162  -1.4543 O.2            1 <1>                0.0000
     22 C22         -1.0733  -2.5725  -2.1407 C.3            1 <1>                0.0000
     23 C23         -2.5794  -2.3065  -2.1849 C.3            1 <1>                0.0000
     24 N24         -2.8703  -1.3094  -3.2237 N.4            1 <1>                0.0000
     25 H25         -2.5638  -1.6579  -4.1197 H              1 <1>                0.0000
     26 H26         -3.8635  -1.1339  -3.2529 H              1 <1>                0.0000
     27 H27         -2.3833  -0.4514  -3.0121 H              1 <1>                0.0000
     28 C28         -3.3179  -3.6075  -2.5058 C.3            1 <1>                0.0000
     29 C29         -4.8046  -3.3734  -2.4286 C.ar           1 <1>                0.0000
     30 C30         -5.4715  -3.5547  -1.2311 C.ar           1 <1>                0.0000
     31 C31         -6.8350  -3.3397  -1.1594 C.ar           1 <1>                0.0000
     32 C32         -7.5328  -2.9438  -2.2851 C.ar           1 <1>                0.0000
     33 C33         -6.8660  -2.7623  -3.4835 C.ar           1 <1>                0.0000
     34 Cl34        -7.7414  -2.2645  -4.8975 Cl             1 <1>                0.0000
     35 C35         -5.5000  -2.9721  -3.5533 C.ar           1 <1>                0.0000
     36 H36          3.7397   3.3684   6.8702 H              1 <1>                0.0000
     37 H37          4.9391   4.6499   6.5744 H              1 <1>                0.0000
     38 H38          3.7927   4.7990   7.9279 H              1 <1>                0.0000
     39 H39          4.5363   6.0971   3.7341 H              1 <1>                0.0000
     40 H40          4.9940   5.1739   1.5005 H              1 <1>                0.0000
     41 H41          3.7846   3.1805   0.7168 H              1 <1>                0.0000
     42 H42          1.6540   3.0352   4.4360 H              1 <1>                0.0000
     43 H43          2.8116   1.6913   0.2590 H              1 <1>                0.0000
     44 H44          1.6980  -0.7704   0.9962 H              1 <1>                0.0000
     45 H45          0.3571   0.2615   0.4436 H              1 <1>                0.0000
     46 H46          1.6449   0.6798  -1.6907 H              1 <1>                0.0000
     47 H47          3.9131   0.1797  -1.4824 H              1 <1>                0.0000
     48 H48          3.6192  -1.0492  -0.2086 H              1 <1>                0.0000
     49 H49          3.2795  -1.3349  -3.2475 H              1 <1>                0.0000
     50 H50          4.0685  -2.4693  -2.1007 H              1 <1>                0.0000
     51 H51          1.5143  -2.9314  -2.8610 H              1 <1>                0.0000
     52 H52          1.9683  -3.1408  -1.1420 H              1 <1>                0.0000
     53 H53         -0.7266  -2.8639  -3.1322 H              1 <1>                0.0000
     54 H54         -0.8668  -3.3754  -1.4330 H              1 <1>                0.0000
     55 H55         -2.9104  -1.9300  -1.2170 H              1 <1>                0.0000
     56 H56         -3.0536  -3.9370  -3.5106 H              1 <1>                0.0000
     57 H57         -3.0329  -4.3742  -1.7853 H              1 <1>                0.0000
     58 H58         -4.9270  -3.8647  -0.3515 H              1 <1>                0.0000
     59 H59         -7.3555  -3.4815  -0.2237 H              1 <1>                0.0000
     60 H60         -8.5983  -2.7765  -2.2292 H              1 <1>                0.0000
     61 H61         -4.9789  -2.8305  -4.4886 H              1 <1>                0.0000
@<TRIPOS>BOND
    1    1    2 1     
    2    1   36 1     
    3    1   37 1     
    4    1   38 1     
    5    2    3 2     
    6    2    4 2     
    7    2    5 1     
    8    5   10 ar    
    9    5    6 ar    
   10    6    7 ar    
   11    6   39 1     
   12    7    8 ar    
   13    7   40 1     
   14    8    9 ar    
   15    8   41 1     
   16    9   10 ar    
   17    9   11 1     
   18   10   42 1     
   19   11   12 2     
   20   11   13 am    
   21   13   14 1     
   22   13   43 1     
   23   14   15 1     
   24   14   44 1     
   25   14   45 1     
   26   15   19 1     
   27   15   16 1     
   28   15   46 1     
   29   16   17 1     
   30   16   47 1     
   31   16   48 1     
   32   17   18 1     
   33   17   49 1     
   34   17   50 1     
   35   18   19 1     
   36   18   51 1     
   37   18   52 1     
   38   19   20 am    
   39   20   21 2     
   40   20   22 1     
   41   22   23 1     
   42   22   53 1     
   43   22   54 1     
   44   23   24 1     
   45   23   28 1     
   46   23   55 1     
   47   24   25 1     
   48   24   26 1     
   49   24   27 1     
   50   28   29 1     
   51   28   56 1     
   52   28   57 1     
   53   29   35 ar    
   54   29   30 ar    
   55   30   31 ar    
   56   30   58 1     
   57   31   32 ar    
   58   31   59 1     
   59   32   33 ar    
   60   32   60 1     
   61   33   34 1     
   62   33   35 ar    
   63   35   61 1     
@<TRIPOS>SUBSTRUCTURE
      1 ****           1
@<TRIPOS>SET
DONOR_HYDROGENS      STATIC     ATOMS    <user>   **** ""
4 43 25 26 27
ATOM$RED        STATIC     ATOMS    COLORGROUP SYSTEM
4 43 25 26 27
