#       Name:                PS7
#       Creating user name   gbret
#       Creation time:       Fri Sep  9 14:48:41 2016


#       File generated by GOLD software.
#

@<TRIPOS>MOLECULE
PS7
    88    88     1
SMALL
NO_CHARGES


@<TRIPOS>ATOM
      1 C1          -0.3297  -7.4677  -3.3233 C.3            1 <1>                0.0000
      2 C2          -0.4051  -8.6427  -2.3826 C.2            1 <1>                0.0000
      3 C3          -0.3460 -10.0473  -2.9253 C.3            1 <1>                0.0000
      4 C4          -0.5221  -8.4430  -1.0932 C.2            1 <1>                0.0000
      5 C5          -0.5812  -7.0383  -0.5506 C.3            1 <1>                0.0000
      6 C6          -1.8446  -6.8714   0.2960 C.3            1 <1>                0.0000
      7 C7          -1.9037  -5.4667   0.8387 C.2            1 <1>                0.0000
      8 C8          -1.1782  -5.1202   2.1133 C.3            1 <1>                0.0000
      9 C9          -2.5858  -4.5469   0.2025 C.2            1 <1>                0.0000
     10 C10         -2.5440  -3.1163   0.6744 C.3            1 <1>                0.0000
     11 C11         -1.6001  -2.3113  -0.2211 C.3            1 <1>                0.0000
     12 C12         -1.5583  -0.8807   0.2508 C.2            1 <1>                0.0000
     13 C13         -2.6041   0.0981  -0.2175 C.3            1 <1>                0.0000
     14 C14         -0.6128  -0.4880   1.0680 C.2            1 <1>                0.0000
     15 C15         -0.5709   0.9426   1.5400 C.3            1 <1>                0.0000
     16 C16          0.3587   1.2740   2.7091 C.3            1 <1>                0.0000
     17 C17          1.1747   0.1275   3.3097 C.3            1 <1>                0.0000
     18 O18          0.3235  -0.6940   4.1114 O.3            1 <1>                0.0000
     19 P19          0.8494  -1.9968   4.8977 P.3            1 <1>                0.0000
     20 O20          1.3126  -3.0614   3.8784 O.co2          1 <1>                0.0000
     21 O21          2.0347  -1.6053   5.8081 O.co2          1 <1>                0.0000
     22 O22         -0.3426  -2.5981   5.7975 O.3            1 <1>                0.0000
     23 P23         -0.3954  -3.5776   7.0742 P.3            1 <1>                0.0000
     24 O24         -0.0680  -2.7626   8.3715 O.co2          1 <1>                0.0000
     25 O25         -1.8279  -4.2000   7.1960 O.co2          1 <1>                0.0000
     26 O26          0.6584  -4.7233   6.8974 O.co2          1 <1>                0.0000
     27 C27          0.7173   1.7304   1.2935 C.3            1 <1>                0.0000
     28 C28          1.8644   1.0055   0.5868 C.3            1 <1>                0.0000
     29 C29          0.5840   3.2214   0.9770 C.3            1 <1>                0.0000
     30 C30          0.9862   3.4718  -0.4778 C.3            1 <1>                0.0000
     31 C31          0.8549   4.9404  -0.7896 C.2            1 <1>                0.0000
     32 C32          0.3581   5.3240  -1.9394 C.2            1 <1>                0.0000
     33 C33          0.0078   4.3001  -2.9881 C.3            1 <1>                0.0000
     34 C34          0.1370   6.7893  -2.2135 C.3            1 <1>                0.0000
     35 C35          1.3456   7.3564  -2.9609 C.3            1 <1>                0.0000
     36 C36          1.1244   8.8217  -3.2350 C.2            1 <1>                0.0000
     37 C37          1.9152   9.7157  -2.6950 C.2            1 <1>                0.0000
     38 C38          3.0682   9.2771  -1.8293 C.3            1 <1>                0.0000
     39 C39          1.6720  11.1827  -2.9395 C.3            1 <1>                0.0000
     40 H40         -0.2353  -7.8279  -4.3477 H              1 <1>                0.0000
     41 H41         -1.2360  -6.8693  -3.2306 H              1 <1>                0.0000
     42 H42          0.5368  -6.8560  -3.0719 H              1 <1>                0.0000
     43 H43          0.6918 -10.3783  -2.9645 H              1 <1>                0.0000
     44 H44         -0.9151 -10.7121  -2.2755 H              1 <1>                0.0000
     45 H45         -0.7720 -10.0675  -3.9284 H              1 <1>                0.0000
     46 H46         -0.5761  -9.2850  -0.4191 H              1 <1>                0.0000
     47 H47          0.2973  -6.8500   0.0666 H              1 <1>                0.0000
     48 H48         -0.6023  -6.3296  -1.3784 H              1 <1>                0.0000
     49 H49         -2.7231  -7.0597  -0.3212 H              1 <1>                0.0000
     50 H50         -1.8235  -7.5801   1.1239 H              1 <1>                0.0000
     51 H51         -0.7445  -6.0238   2.5416 H              1 <1>                0.0000
     52 H52         -0.3855  -4.4040   1.8969 H              1 <1>                0.0000
     53 H53         -1.8798  -4.6821   2.8231 H              1 <1>                0.0000
     54 H54         -3.1781  -4.8138  -0.6603 H              1 <1>                0.0000
     55 H55         -3.5451  -2.6880   0.6250 H              1 <1>                0.0000
     56 H56         -2.1850  -3.0834   1.7030 H              1 <1>                0.0000
     57 H57         -0.5990  -2.7396  -0.1718 H              1 <1>                0.0000
     58 H58         -1.9591  -2.3442  -1.2498 H              1 <1>                0.0000
     59 H59         -3.4476   0.0865   0.4728 H              1 <1>                0.0000
     60 H60         -2.1754   1.0997  -0.2505 H              1 <1>                0.0000
     61 H61         -2.9457  -0.1839  -1.2134 H              1 <1>                0.0000
     62 H62          0.1367  -1.1894   1.4036 H              1 <1>                0.0000
     63 H63         -1.5134   1.4865   1.4762 H              1 <1>                0.0000
     64 H64          0.0276   2.0355   3.4151 H              1 <1>                0.0000
     65 H65          1.6061  -0.4708   2.5071 H              1 <1>                0.0000
     66 H66          1.9738   0.5355   3.9285 H              1 <1>                0.0000
     67 H67          1.6235  -0.0536   0.4956 H              1 <1>                0.0000
     68 H68          2.0073   1.4325  -0.4058 H              1 <1>                0.0000
     69 H69          2.7797   1.1212   1.1673 H              1 <1>                0.0000
     70 H70         -0.4494   3.5337   1.1272 H              1 <1>                0.0000
     71 H71          1.2360   3.7928   1.6377 H              1 <1>                0.0000
     72 H72          2.0196   3.1595  -0.6280 H              1 <1>                0.0000
     73 H73          0.3342   2.9004  -1.1385 H              1 <1>                0.0000
     74 H74          1.1703   5.6765  -0.0650 H              1 <1>                0.0000
     75 H75         -1.0154   3.9573  -2.8338 H              1 <1>                0.0000
     76 H76          0.0952   4.7488  -3.9776 H              1 <1>                0.0000
     77 H77          0.6900   3.4535  -2.9116 H              1 <1>                0.0000
     78 H78         -0.7582   6.9140  -2.8226 H              1 <1>                0.0000
     79 H79          0.0113   7.3205  -1.2700 H              1 <1>                0.0000
     80 H80          2.2408   7.2318  -2.3517 H              1 <1>                0.0000
     81 H81          1.4712   6.8252  -3.9044 H              1 <1>                0.0000
     82 H82          0.3140   9.1348  -3.8765 H              1 <1>                0.0000
     83 H83          3.9497   9.1195  -2.4507 H              1 <1>                0.0000
     84 H84          3.2793  10.0475  -1.0877 H              1 <1>                0.0000
     85 H85          2.8094   8.3469  -1.3234 H              1 <1>                0.0000
     86 H86          1.0058  11.5736  -2.1704 H              1 <1>                0.0000
     87 H87          2.6204  11.7188  -2.9055 H              1 <1>                0.0000
     88 H88          1.2138  11.3166  -3.9194 H              1 <1>                0.0000
@<TRIPOS>BOND
    1    1    2 1     
    2    1   40 1     
    3    1   41 1     
    4    1   42 1     
    5    2    3 1     
    6    2    4 2     
    7    3   43 1     
    8    3   44 1     
    9    3   45 1     
   10    4    5 1     
   11    4   46 1     
   12    5    6 1     
   13    5   47 1     
   14    5   48 1     
   15    6    7 1     
   16    6   49 1     
   17    6   50 1     
   18    7    8 1     
   19    7    9 2     
   20    8   51 1     
   21    8   52 1     
   22    8   53 1     
   23    9   10 1     
   24    9   54 1     
   25   10   11 1     
   26   10   55 1     
   27   10   56 1     
   28   11   12 1     
   29   11   57 1     
   30   11   58 1     
   31   12   13 1     
   32   12   14 2     
   33   13   59 1     
   34   13   60 1     
   35   13   61 1     
   36   14   15 1     
   37   14   62 1     
   38   15   27 1     
   39   15   16 1     
   40   15   63 1     
   41   16   17 1     
   42   16   27 1     
   43   16   64 1     
   44   17   18 1     
   45   17   65 1     
   46   17   66 1     
   47   18   19 1     
   48   19   20 ar    
   49   19   21 ar    
   50   19   22 1     
   51   22   23 1     
   52   23   24 ar    
   53   23   25 ar    
   54   23   26 ar    
   55   27   28 1     
   56   27   29 1     
   57   28   67 1     
   58   28   68 1     
   59   28   69 1     
   60   29   30 1     
   61   29   70 1     
   62   29   71 1     
   63   30   31 1     
   64   30   72 1     
   65   30   73 1     
   66   31   32 2     
   67   31   74 1     
   68   32   33 1     
   69   32   34 1     
   70   33   75 1     
   71   33   76 1     
   72   33   77 1     
   73   34   35 1     
   74   34   78 1     
   75   34   79 1     
   76   35   36 1     
   77   35   80 1     
   78   35   81 1     
   79   36   37 2     
   80   36   82 1     
   81   37   38 1     
   82   37   39 1     
   83   38   83 1     
   84   38   84 1     
   85   38   85 1     
   86   39   86 1     
   87   39   87 1     
   88   39   88 1     
@<TRIPOS>SUBSTRUCTURE
      1 ****           1
