#       Name:                PSP
#       Creating user name   gbret
#       Creation time:       Fri Sep  9 14:49:57 2016


#       File generated by GOLD software.
#

@<TRIPOS>MOLECULE
PSP
    39    40     1
SMALL
NO_CHARGES


@<TRIPOS>ATOM
      1 O1           1.0057   7.7080  -2.2174 O.3            1 <1>                0.0000
      2 N2           1.0249   6.2921  -2.2252 N.2            1 <1>                0.0000
      3 C3          -0.0858   5.6306  -2.2181 C.2            1 <1>                0.0000
      4 C4          -0.0658   4.1534  -2.2263 C.ar           1 <1>                0.0000
      5 C5           1.1446   3.4503  -2.2358 C.ar           1 <1>                0.0000
      6 C6           1.1166   2.0708  -2.2432 C.ar           1 <1>                0.0000
      7 N7          -0.0286   1.4163  -2.2418 N.pl3          1 <1>                0.0000
      8 C8          -0.0088  -0.0485  -2.2499 C.3            1 <1>                0.0000
      9 C9           0.0043  -0.5663  -0.8103 C.3            1 <1>                0.0000
     10 C10          0.0251  -2.0962  -0.8187 C.3            1 <1>                0.0000
     11 N11          0.0376  -2.5920   0.5598 N.pl3          1 <1>                0.0000
     12 C12          1.1969  -2.7874   1.1578 C.ar           1 <1>                0.0000
     13 C13          1.2554  -3.2533   2.4553 C.ar           1 <1>                0.0000
     14 C14          0.0611  -3.5184   3.1355 C.ar           1 <1>                0.0000
     15 C15          0.0737  -4.0180   4.5257 C.2            1 <1>                0.0000
     16 N16         -1.0402  -4.2569   5.1369 N.2            1 <1>                0.0000
     17 O17         -1.0280  -4.7357   6.4694 O.3            1 <1>                0.0000
     18 C18         -1.1456  -3.2965   2.4617 C.ar           1 <1>                0.0000
     19 C19         -1.1108  -2.8239   1.1657 C.ar           1 <1>                0.0000
     20 C20         -1.1912   2.0394  -2.2330 C.ar           1 <1>                0.0000
     21 C21         -1.2566   3.4177  -2.2188 C.ar           1 <1>                0.0000
     22 H22          1.8836   8.1133  -2.2236 H              1 <1>                0.0000
     23 H23         -1.0283   6.1578  -2.2063 H              1 <1>                0.0000
     24 H24          2.0860   3.9796  -2.2376 H              1 <1>                0.0000
     25 H25          2.0451   1.5192  -2.2505 H              1 <1>                0.0000
     26 H26         -0.8959  -0.4211  -2.7620 H              1 <1>                0.0000
     27 H27          0.8838  -0.3969  -2.7695 H              1 <1>                0.0000
     28 H28          0.8915  -0.1937  -0.2982 H              1 <1>                0.0000
     29 H29         -0.8883  -0.2179  -0.2907 H              1 <1>                0.0000
     30 H30         -0.8621  -2.4687  -1.3308 H              1 <1>                0.0000
     31 H31          0.9177  -2.4445  -1.3383 H              1 <1>                0.0000
     32 H32          2.1129  -2.5803   0.6245 H              1 <1>                0.0000
     33 H33          2.2083  -3.4114   2.9386 H              1 <1>                0.0000
     34 H34          1.0135  -4.1836   5.0315 H              1 <1>                0.0000
     35 H35         -1.9079  -4.8847   6.8418 H              1 <1>                0.0000
     36 H36         -2.0896  -3.4884   2.9501 H              1 <1>                0.0000
     37 H37         -2.0365  -2.6491   0.6375 H              1 <1>                0.0000
     38 H38         -2.1045   1.4628  -2.2326 H              1 <1>                0.0000
     39 H39         -2.2120   3.9211  -2.2117 H              1 <1>                0.0000
@<TRIPOS>BOND
    1    1    2 1     
    2    1   22 1     
    3    2    3 2     
    4    3    4 1     
    5    3   23 1     
    6    4   21 ar    
    7    4    5 ar    
    8    5    6 ar    
    9    5   24 1     
   10    6    7 ar    
   11    6   25 1     
   12    7    8 1     
   13    7   20 ar    
   14    8    9 1     
   15    8   26 1     
   16    8   27 1     
   17    9   10 1     
   18    9   28 1     
   19    9   29 1     
   20   10   11 1     
   21   10   30 1     
   22   10   31 1     
   23   11   19 ar    
   24   11   12 ar    
   25   12   13 ar    
   26   12   32 1     
   27   13   14 ar    
   28   13   33 1     
   29   14   15 1     
   30   14   18 ar    
   31   15   16 2     
   32   15   34 1     
   33   16   17 1     
   34   17   35 1     
   35   18   19 ar    
   36   18   36 1     
   37   19   37 1     
   38   20   21 ar    
   39   20   38 1     
   40   21   39 1     
@<TRIPOS>SUBSTRUCTURE
      1 ****           1
@<TRIPOS>SET
DONOR_HYDROGENS      STATIC     ATOMS    <user>   **** ""
2 22 35
ATOM$RED        STATIC     ATOMS    COLORGROUP SYSTEM
2 22 35
