#       Name:                PUT
#       Creating user name   gbret
#       Creation time:       Fri Sep  9 14:54:00 2016


#       File generated by GOLD software.
#

@<TRIPOS>MOLECULE
PUT
    20    19     1
SMALL
NO_CHARGES


@<TRIPOS>ATOM
      1 N1           0.3057  -0.2137  -3.0775 N.4            1 <1>                0.0000
      2 H2           0.3194  -1.2226  -3.0831 H              1 <1>                0.0000
      3 H3           1.2523   0.1357  -3.0847 H              1 <1>                0.0000
      4 H4          -0.1823   0.1206  -3.8950 H              1 <1>                0.0000
      5 C5          -0.3819   0.2601  -1.8689 C.3            1 <1>                0.0000
      6 C6           0.3581  -0.2468  -0.6294 C.3            1 <1>                0.0000
      7 C7          -0.3580   0.2468   0.6294 C.3            1 <1>                0.0000
      8 C8           0.3820  -0.2601   1.8689 C.3            1 <1>                0.0000
      9 N9          -0.3056   0.2136   3.0776 N.4            1 <1>                0.0000
     10 H10          0.1824  -0.1206   3.8950 H              1 <1>                0.0000
     11 H11         -0.3193   1.2225   3.0831 H              1 <1>                0.0000
     12 H12         -1.2522  -0.1357   3.0847 H              1 <1>                0.0000
     13 H13         -0.3967   1.3500  -1.8629 H              1 <1>                0.0000
     14 H14         -1.4045  -0.1172  -1.8612 H              1 <1>                0.0000
     15 H15          0.3729  -1.3366  -0.6354 H              1 <1>                0.0000
     16 H16          1.3807   0.1305  -0.6371 H              1 <1>                0.0000
     17 H17         -0.3728   1.3366   0.6354 H              1 <1>                0.0000
     18 H18         -1.3806  -0.1305   0.6371 H              1 <1>                0.0000
     19 H19          0.3967  -1.3500   1.8629 H              1 <1>                0.0000
     20 H20          1.4046   0.1171   1.8612 H              1 <1>                0.0000
@<TRIPOS>BOND
    1    1    2 1     
    2    1    3 1     
    3    1    4 1     
    4    1    5 1     
    5    5    6 1     
    6    5   13 1     
    7    5   14 1     
    8    6    7 1     
    9    6   15 1     
   10    6   16 1     
   11    7    8 1     
   12    7   17 1     
   13    7   18 1     
   14    8    9 1     
   15    8   19 1     
   16    8   20 1     
   17    9   10 1     
   18    9   11 1     
   19    9   12 1     
@<TRIPOS>SUBSTRUCTURE
      1 ****           1
@<TRIPOS>SET
DONOR_HYDROGENS      STATIC     ATOMS    <user>   **** ""
6 2 3 4 10 11 12
ATOM$RED        STATIC     ATOMS    COLORGROUP SYSTEM
6 2 3 4 10 11 12
