#       Name:                PV4
#       Creating user name   gbret
#       Creation time:       Fri Sep  9 14:54:33 2016


#       File generated by GOLD software.
#

@<TRIPOS>MOLECULE
PV4
    33    34     1
SMALL
NO_CHARGES


@<TRIPOS>ATOM
      1 C1          -0.7096   5.3575  -0.2837 C.3            1 <1>                0.0000
      2 C2          -0.8150   3.8638   0.0300 C.3            1 <1>                0.0000
      3 C3          -0.4338   3.0539  -1.2108 C.3            1 <1>                0.0000
      4 C4          -0.5375   1.5826  -0.9018 C.ar           1 <1>                0.0000
      5 C5           0.5576   0.9044  -0.3994 C.ar           1 <1>                0.0000
      6 C6           0.4676  -0.4451  -0.1139 C.ar           1 <1>                0.0000
      7 C7          -0.7226  -1.1213  -0.3311 C.ar           1 <1>                0.0000
      8 O8          -0.8131  -2.4487  -0.0504 O.3            1 <1>                0.0000
      9 C9           0.2863  -3.0715   0.4493 C.ar           1 <1>                0.0000
     10 C10          0.4888  -3.1301   1.8208 C.ar           1 <1>                0.0000
     11 C11          1.6074  -3.7638   2.3261 C.ar           1 <1>                0.0000
     12 C12          2.5251  -4.3390   1.4665 C.ar           1 <1>                0.0000
     13 C13          2.3257  -4.2821   0.0994 C.ar           1 <1>                0.0000
     14 C14          1.2057  -3.6549  -0.4109 C.ar           1 <1>                0.0000
     15 C15         -1.8250  -0.4386  -0.8368 C.ar           1 <1>                0.0000
     16 O16         -2.9951  -1.0974  -1.0512 O.3            1 <1>                0.0000
     17 C17         -1.7292   0.9153  -1.1158 C.ar           1 <1>                0.0000
     18 H18          0.3136   5.5967  -0.5734 H              1 <1>                0.0000
     19 H19         -1.3862   5.6056  -1.1015 H              1 <1>                0.0000
     20 H20         -0.9812   5.9345   0.6003 H              1 <1>                0.0000
     21 H21         -0.1384   3.6157   0.8478 H              1 <1>                0.0000
     22 H22         -1.8382   3.6246   0.3198 H              1 <1>                0.0000
     23 H23         -1.1103   3.3020  -2.0286 H              1 <1>                0.0000
     24 H24          0.5895   3.2930  -1.5005 H              1 <1>                0.0000
     25 H25          1.4857   1.4301  -0.2301 H              1 <1>                0.0000
     26 H26          1.3246  -0.9725   0.2780 H              1 <1>                0.0000
     27 H27         -0.2273  -2.6803   2.4926 H              1 <1>                0.0000
     28 H28          1.7655  -3.8097   3.3935 H              1 <1>                0.0000
     29 H29          3.3993  -4.8334   1.8636 H              1 <1>                0.0000
     30 H30          3.0442  -4.7319  -0.5698 H              1 <1>                0.0000
     31 H31          1.0502  -3.6111  -1.4787 H              1 <1>                0.0000
     32 H32         -3.5921  -1.0964  -0.2905 H              1 <1>                0.0000
     33 H33         -2.5831   1.4475  -1.5083 H              1 <1>                0.0000
@<TRIPOS>BOND
    1    1    2 1     
    2    1   18 1     
    3    1   19 1     
    4    1   20 1     
    5    2    3 1     
    6    2   21 1     
    7    2   22 1     
    8    3    4 1     
    9    3   23 1     
   10    3   24 1     
   11    4   17 ar    
   12    4    5 ar    
   13    5    6 ar    
   14    5   25 1     
   15    6    7 ar    
   16    6   26 1     
   17    7    8 1     
   18    7   15 ar    
   19    8    9 1     
   20    9   14 ar    
   21    9   10 ar    
   22   10   11 ar    
   23   10   27 1     
   24   11   12 ar    
   25   11   28 1     
   26   12   13 ar    
   27   12   29 1     
   28   13   14 ar    
   29   13   30 1     
   30   14   31 1     
   31   15   16 1     
   32   15   17 ar    
   33   16   32 1     
   34   17   33 1     
@<TRIPOS>SUBSTRUCTURE
      1 ****           1
@<TRIPOS>SET
DONOR_HYDROGENS      STATIC     ATOMS    <user>   **** ""
1 32
ATOM$RED        STATIC     ATOMS    COLORGROUP SYSTEM
1 32
