#       Name:                PVH
#       Creating user name   gbret
#       Creation time:       Fri Sep  9 14:55:03 2016


#       File generated by GOLD software.
#

@<TRIPOS>MOLECULE
PVH
    24    24     1
SMALL
NO_CHARGES


@<TRIPOS>ATOM
      1 C1          -0.1301   4.0021  -1.3166 C.3            1 <1>                0.0000
      2 O2          -0.1104   2.5502  -1.3246 O.3            1 <1>                0.0000
      3 C3           0.5056   1.9435  -0.2979 C.2            1 <1>                0.0000
      4 O4           1.0117   2.6037   0.5784 O.2            1 <1>                0.0000
      5 C5           0.5661   0.4389  -0.2383 C.3            1 <1>                0.0000
      6 N6           1.6533   0.0278   0.6601 N.4            1 <1>                0.0000
      7 H7           1.4825   0.3944   1.5845 H              1 <1>                0.0000
      8 H8           1.6938  -0.9796   0.7001 H              1 <1>                0.0000
      9 H9           2.5302   0.3861   0.3128 H              1 <1>                0.0000
     10 C10         -0.7637  -0.1045   0.2883 C.3            1 <1>                0.0000
     11 C11         -0.7483  -1.6104   0.2326 C.2            1 <1>                0.0000
     12 C12         -0.9860  -2.4430   1.2640 C.2            1 <1>                0.0000
     13 N13         -0.8723  -3.7177   0.7784 N.pl3          1 <1>                0.0000
     14 H14         -0.9880  -4.5382   1.2827 H              1 <1>                0.0000
     15 C15         -0.5690  -3.6196  -0.5339 C.2            1 <1>                0.0000
     16 N16         -0.5014  -2.3564  -0.8544 N.2            1 <1>                0.0000
     17 H17          0.8925   4.3794  -1.3243 H              1 <1>                0.0000
     18 H18         -0.6573   4.3632  -2.1997 H              1 <1>                0.0000
     19 H19         -0.6403   4.3536  -0.4198 H              1 <1>                0.0000
     20 H20          0.7506   0.0428  -1.2368 H              1 <1>                0.0000
     21 H21         -0.9058   0.2195   1.3193 H              1 <1>                0.0000
     22 H22         -1.5799   0.2736  -0.3272 H              1 <1>                0.0000
     23 H23         -1.2207  -2.1594   2.2794 H              1 <1>                0.0000
     24 H24         -0.4123  -4.4492  -1.2074 H              1 <1>                0.0000
@<TRIPOS>BOND
    1    1    2 1     
    2    1   17 1     
    3    1   18 1     
    4    1   19 1     
    5    2    3 1     
    6    3    4 2     
    7    3    5 1     
    8    5    6 1     
    9    5   10 1     
   10    5   20 1     
   11    6    7 1     
   12    6    8 1     
   13    6    9 1     
   14   10   11 1     
   15   10   21 1     
   16   10   22 1     
   17   11   16 1     
   18   11   12 2     
   19   12   13 1     
   20   12   23 1     
   21   13   14 1     
   22   13   15 1     
   23   15   16 2     
   24   15   24 1     
@<TRIPOS>SUBSTRUCTURE
      1 ****           1
@<TRIPOS>SET
DONOR_HYDROGENS      STATIC     ATOMS    <user>   **** ""
4 7 8 9 14
ATOM$RED        STATIC     ATOMS    COLORGROUP SYSTEM
4 7 8 9 14
