#       Name:                PVL
#       Creating user name   gbret
#       Creation time:       Fri Sep  9 14:55:07 2016


#       File generated by GOLD software.
#

@<TRIPOS>MOLECULE
PVL
     9     8     1
SMALL
NO_CHARGES


@<TRIPOS>ATOM
      1 C1          -0.0110   1.1028   0.4228 C.3            1 <1>                0.0000
      2 C2           0.0095  -0.4041   0.4145 C.2            1 <1>                0.0000
      3 O3           0.0277  -1.0136   1.4572 O.2            1 <1>                0.0000
      4 C4           0.0073  -1.1403  -0.8768 C.2            1 <1>                0.0000
      5 O5           0.0236  -2.3480  -0.8834 O.2            1 <1>                0.0000
      6 H6           1.0116   1.4801   0.4151 H              1 <1>                0.0000
      7 H7          -0.5381   1.4639  -0.4603 H              1 <1>                0.0000
      8 H8          -0.5212   1.4543   1.3196 H              1 <1>                0.0000
      9 H9          -0.0090  -0.5953  -1.8091 H              1 <1>                0.0000
@<TRIPOS>BOND
    1    1    2 1     
    2    1    6 1     
    3    1    7 1     
    4    1    8 1     
    5    2    3 2     
    6    2    4 1     
    7    4    5 2     
    8    4    9 1     
@<TRIPOS>SUBSTRUCTURE
      1 ****           1
