#       Name:                PXA
#       Creating user name   gbret
#       Creation time:       Fri Sep  9 14:56:47 2016


#       File generated by GOLD software.
#

@<TRIPOS>MOLECULE
PXA
    33    35     1
SMALL
NO_CHARGES


@<TRIPOS>ATOM
      1 C1          -0.0425   2.9456  -2.7279 C.3            1 <1>                0.0000
      2 C2          -0.0250   1.4390  -2.7593 C.ar           1 <1>                0.0000
      3 C3          -0.0203   0.7641  -3.9664 C.ar           1 <1>                0.0000
      4 N4          -0.0051  -0.5527  -4.0221 N.ar           1 <1>                0.0000
      5 C5           0.0065  -1.3068  -2.9324 C.ar           1 <1>                0.0000
      6 C6           0.0236  -2.7751  -3.0526 C.2            1 <1>                0.0000
      7 O7           0.0272  -3.2936  -4.1485 O.2            1 <1>                0.0000
      8 C8           0.0029  -0.7008  -1.6521 C.ar           1 <1>                0.0000
      9 N9           0.0150  -1.4500  -0.5434 N.2            1 <1>                0.0000
     10 C10          0.0116  -0.8773   0.6441 C.2            1 <1>                0.0000
     11 C11          0.0255  -1.6903   1.8709 C.2            1 <1>                0.0000
     12 C12          0.0434  -3.1502   1.7956 C.2            1 <1>                0.0000
     13 O13         -0.0478  -3.7035   0.7192 O.2            1 <1>                0.0000
     14 C14          0.0218  -1.0453   3.1032 C.2            1 <1>                0.0000
     15 N15          0.0350  -1.7782   4.2635 N.pl3          1 <1>                0.0000
     16 C16          0.0042   0.4284   3.1597 C.2            1 <1>                0.0000
     17 O17          0.0014   0.9893   4.2436 O.2            1 <1>                0.0000
     18 C18         -0.0090   1.1927   1.9865 C.2            1 <1>                0.0000
     19 C19         -0.0264   2.6967   2.0798 C.3            1 <1>                0.0000
     20 C20         -0.0057   0.5902   0.7508 C.2            1 <1>                0.0000
     21 O21         -0.0180   1.3324  -0.3779 O.3            1 <1>                0.0000
     22 C22         -0.0076   0.7097  -1.5733 C.ar           1 <1>                0.0000
     23 H23          0.9808   3.3210  -2.7280 H              1 <1>                0.0000
     24 H24         -0.5673   3.3212  -3.6063 H              1 <1>                0.0000
     25 H25         -0.5537   3.2844  -1.8268 H              1 <1>                0.0000
     26 H26         -0.0296   1.3300  -4.8862 H              1 <1>                0.0000
     27 H27          0.0331  -3.3895  -2.1645 H              1 <1>                0.0000
     28 H28          0.1378  -3.7363   2.6978 H              1 <1>                0.0000
     29 H29          0.0469  -2.7473   4.2249 H              1 <1>                0.0000
     30 H30          0.0325  -1.3270   5.1222 H              1 <1>                0.0000
     31 H31          0.9970   3.0715   2.0986 H              1 <1>                0.0000
     32 H32         -0.5481   3.1083   1.2158 H              1 <1>                0.0000
     33 H33         -0.5406   2.9983   2.9923 H              1 <1>                0.0000
@<TRIPOS>BOND
    1    1    2 1     
    2    1   23 1     
    3    1   24 1     
    4    1   25 1     
    5    2   22 ar    
    6    2    3 ar    
    7    3    4 ar    
    8    3   26 1     
    9    4    5 ar    
   10    5    6 1     
   11    5    8 ar    
   12    6    7 2     
   13    6   27 1     
   14    8   22 ar    
   15    8    9 1     
   16    9   10 2     
   17   10   20 1     
   18   10   11 1     
   19   11   12 1     
   20   11   14 2     
   21   12   13 2     
   22   12   28 1     
   23   14   15 1     
   24   14   16 1     
   25   15   29 1     
   26   15   30 1     
   27   16   17 2     
   28   16   18 1     
   29   18   19 1     
   30   18   20 2     
   31   19   31 1     
   32   19   32 1     
   33   19   33 1     
   34   20   21 1     
   35   21   22 1     
@<TRIPOS>SUBSTRUCTURE
      1 ****           1
@<TRIPOS>SET
DONOR_HYDROGENS      STATIC     ATOMS    <user>   **** ""
2 29 30
ATOM$RED        STATIC     ATOMS    COLORGROUP SYSTEM
2 29 30
