#       Name:                PXI
#       Creating user name   gbret
#       Creation time:       Fri Sep  9 14:57:11 2016


#       File generated by GOLD software.
#

@<TRIPOS>MOLECULE
PXI
    76    77     1
SMALL
NO_CHARGES


@<TRIPOS>ATOM
      1 C1          -2.5926  -0.6462  -1.0407 C.3            1 <1>                0.0000
      2 C2          -3.2161   0.2197  -2.1373 C.3            1 <1>                0.0000
      3 C3          -2.4638  -0.0013  -3.4511 C.3            1 <1>                0.0000
      4 O4          -1.0478   0.2454  -3.2455 O.3            1 <1>                0.0000
      5 C5          -0.7129   1.3808  -2.6126 C.2            1 <1>                0.0000
      6 O6          -1.5746   2.1420  -2.2412 O.2            1 <1>                0.0000
      7 C7           0.7375   1.7060  -2.3648 C.3            1 <1>                0.0000
      8 C8           0.8924   3.2125  -2.1471 C.3            1 <1>                0.0000
      9 C9           1.2226   0.9586  -1.1211 C.3            1 <1>                0.0000
     10 O10          0.1646   0.8915  -0.1628 O.3            1 <1>                0.0000
     11 C11          0.5980   1.0285   1.1920 C.3            1 <1>                0.0000
     12 O12          1.0046   2.3779   1.4281 O.3            1 <1>                0.0000
     13 C13          1.4831   2.6198   2.7528 C.3            1 <1>                0.0000
     14 C14          1.9141   4.0823   2.8805 C.3            1 <1>                0.0000
     15 C15          0.3666   2.3269   3.7585 C.3            1 <1>                0.0000
     16 C16         -0.1007   0.8787   3.5835 C.3            1 <1>                0.0000
     17 C17         -0.5540   0.6717   2.1350 C.3            1 <1>                0.0000
     18 O18         -1.6747   1.5147   1.8603 O.3            1 <1>                0.0000
     19 N19          1.0084  -0.0356   3.8867 N.4            1 <1>                0.0000
     20 H20          1.7766   0.1476   3.2587 H              1 <1>                0.0000
     21 C21          1.4489   0.1717   5.2727 C.3            1 <1>                0.0000
     22 C22          0.5586  -1.4238   3.7183 C.3            1 <1>                0.0000
     23 C23          1.6481  -0.4584  -1.5111 C.3            1 <1>                0.0000
     24 C24          3.1641  -0.4982  -1.7131 C.3            1 <1>                0.0000
     25 C25          1.2560  -1.4330  -0.3987 C.3            1 <1>                0.0000
     26 C26          1.1610  -2.8488  -0.9709 C.3            1 <1>                0.0000
     27 C27          1.4852  -3.8650   0.1259 C.3            1 <1>                0.0000
     28 C28         -0.2355  -3.0907  -1.4831 C.2            1 <1>                0.0000
     29 O29         -0.8708  -4.0449  -1.0855 O.2            1 <1>                0.0000
     30 C30         -0.8250  -2.1748  -2.4592 C.2            1 <1>                0.0000
     31 C31         -2.0617  -2.3882  -2.9131 C.2            1 <1>                0.0000
     32 C32         -2.6677  -1.4437  -3.9191 C.3            1 <1>                0.0000
     33 C33         -4.1650  -1.7299  -4.0500 C.3            1 <1>                0.0000
     34 H34         -2.8395  -1.6926  -1.2197 H              1 <1>                0.0000
     35 H35         -1.5098  -0.5215  -1.0510 H              1 <1>                0.0000
     36 H36         -2.9842  -0.3412  -0.0703 H              1 <1>                0.0000
     37 H37         -4.2626  -0.0561  -2.2670 H              1 <1>                0.0000
     38 H38         -3.1497   1.2698  -1.8528 H              1 <1>                0.0000
     39 H39         -2.8458   0.6837  -4.2081 H              1 <1>                0.0000
     40 H40          1.3308   1.4006  -3.2266 H              1 <1>                0.0000
     41 H41          0.3712   3.5033  -1.2351 H              1 <1>                0.0000
     42 H42          1.9500   3.4596  -2.0557 H              1 <1>                0.0000
     43 H43          0.4662   3.7479  -2.9956 H              1 <1>                0.0000
     44 H44          2.0721   1.4868  -0.6880 H              1 <1>                0.0000
     45 H45          1.4380   0.3583   1.3745 H              1 <1>                0.0000
     46 H46          2.3349   1.9707   2.9557 H              1 <1>                0.0000
     47 H47          1.0621   4.7312   2.6779 H              1 <1>                0.0000
     48 H48          2.2791   4.2666   3.8909 H              1 <1>                0.0000
     49 H49          2.7083   4.2909   2.1636 H              1 <1>                0.0000
     50 H50          0.7428   2.4683   4.7717 H              1 <1>                0.0000
     51 H51         -0.4696   3.0034   3.5817 H              1 <1>                0.0000
     52 H52         -0.9335   0.6802   4.2581 H              1 <1>                0.0000
     53 H53         -0.8363  -0.3707   1.9872 H              1 <1>                0.0000
     54 H54         -2.0149   1.4353   0.9586 H              1 <1>                0.0000
     55 H55          0.6191  -0.0261   5.9511 H              1 <1>                0.0000
     56 H56          2.2719  -0.5067   5.4977 H              1 <1>                0.0000
     57 H57          1.7827   1.2018   5.3976 H              1 <1>                0.0000
     58 H58          0.2317  -1.5776   2.6899 H              1 <1>                0.0000
     59 H59          1.3815  -2.1022   3.9433 H              1 <1>                0.0000
     60 H60         -0.2713  -1.6217   4.3968 H              1 <1>                0.0000
     61 H61          1.1504  -0.7451  -2.4375 H              1 <1>                0.0000
     62 H62          3.6618  -0.2115  -0.7867 H              1 <1>                0.0000
     63 H63          3.4673  -1.5077  -1.9909 H              1 <1>                0.0000
     64 H64          3.4435   0.1961  -2.5055 H              1 <1>                0.0000
     65 H65          2.0101  -1.4088   0.3880 H              1 <1>                0.0000
     66 H66          0.2901  -1.1427   0.0149 H              1 <1>                0.0000
     67 H67          1.8724  -2.9583  -1.7895 H              1 <1>                0.0000
     68 H68          0.7738  -3.7555   0.9445 H              1 <1>                0.0000
     69 H69          1.4176  -4.8736  -0.2817 H              1 <1>                0.0000
     70 H70          2.4952  -3.6899   0.4965 H              1 <1>                0.0000
     71 H71         -0.2594  -1.3254  -2.8125 H              1 <1>                0.0000
     72 H72         -2.6276  -3.2378  -2.5604 H              1 <1>                0.0000
     73 H73         -2.1850  -1.5842  -4.8862 H              1 <1>                0.0000
     74 H74         -4.6477  -1.5893  -3.0829 H              1 <1>                0.0000
     75 H75         -4.6032  -1.0468  -4.7776 H              1 <1>                0.0000
     76 H76         -4.3107  -2.7576  -4.3828 H              1 <1>                0.0000
@<TRIPOS>BOND
    1    1    2 1     
    2    1   34 1     
    3    1   35 1     
    4    1   36 1     
    5    2    3 1     
    6    2   37 1     
    7    2   38 1     
    8    3   32 1     
    9    3    4 1     
   10    3   39 1     
   11    4    5 1     
   12    5    6 2     
   13    5    7 1     
   14    7    8 1     
   15    7    9 1     
   16    7   40 1     
   17    8   41 1     
   18    8   42 1     
   19    8   43 1     
   20    9   10 1     
   21    9   23 1     
   22    9   44 1     
   23   10   11 1     
   24   11   17 1     
   25   11   12 1     
   26   11   45 1     
   27   12   13 1     
   28   13   14 1     
   29   13   15 1     
   30   13   46 1     
   31   14   47 1     
   32   14   48 1     
   33   14   49 1     
   34   15   16 1     
   35   15   50 1     
   36   15   51 1     
   37   16   17 1     
   38   16   19 1     
   39   16   52 1     
   40   17   18 1     
   41   17   53 1     
   42   18   54 1     
   43   19   20 1     
   44   19   21 1     
   45   19   22 1     
   46   21   55 1     
   47   21   56 1     
   48   21   57 1     
   49   22   58 1     
   50   22   59 1     
   51   22   60 1     
   52   23   24 1     
   53   23   25 1     
   54   23   61 1     
   55   24   62 1     
   56   24   63 1     
   57   24   64 1     
   58   25   26 1     
   59   25   65 1     
   60   25   66 1     
   61   26   27 1     
   62   26   28 1     
   63   26   67 1     
   64   27   68 1     
   65   27   69 1     
   66   27   70 1     
   67   28   29 2     
   68   28   30 1     
   69   30   31 2     
   70   30   71 1     
   71   31   32 1     
   72   31   72 1     
   73   32   33 1     
   74   32   73 1     
   75   33   74 1     
   76   33   75 1     
   77   33   76 1     
@<TRIPOS>SUBSTRUCTURE
      1 ****           1
@<TRIPOS>SET
DONOR_HYDROGENS      STATIC     ATOMS    <user>   **** ""
2 54 20
ATOM$RED        STATIC     ATOMS    COLORGROUP SYSTEM
2 54 20
