#       Name:                Q14
#       Creating user name   gbret
#       Creation time:       Fri Sep  9 15:02:38 2016


#       File generated by GOLD software.
#

@<TRIPOS>MOLECULE
Q14
    53    54     1
SMALL
NO_CHARGES


@<TRIPOS>ATOM
      1 C1           2.0442   3.5447  -5.4212 C.3            1 <1>                0.0000
      2 C2           2.1292   2.0658  -5.1443 C.ar           1 <1>                0.0000
      3 C3           2.4173   1.1715  -6.1597 C.ar           1 <1>                0.0000
      4 C4           2.4878  -0.1861  -5.8656 C.ar           1 <1>                0.0000
      5 N5           2.7768  -1.0958  -6.8762 N.pl3          1 <1>                0.0000
      6 N6           2.2826  -0.6198  -4.6313 N.ar           1 <1>                0.0000
      7 C7           2.0062   0.2100  -3.6435 C.ar           1 <1>                0.0000
      8 C8           1.7814  -0.3339  -2.2561 C.3            1 <1>                0.0000
      9 O9           1.4999   0.7443  -1.3616 O.3            1 <1>                0.0000
     10 C10          1.2698   0.3349  -0.0120 C.3            1 <1>                0.0000
     11 C11          0.9800   1.5643   0.8515 C.3            1 <1>                0.0000
     12 C12          0.7336   1.1259   2.2965 C.3            1 <1>                0.0000
     13 C13          0.5674   2.3617   3.1831 C.3            1 <1>                0.0000
     14 N14          0.4652   1.9461   4.5883 N.4            1 <1>                0.0000
     15 H15          1.2565   1.3671   4.8263 H              1 <1>                0.0000
     16 H16          0.4558   2.7628   5.1808 H              1 <1>                0.0000
     17 H17         -0.3870   1.4229   4.7232 H              1 <1>                0.0000
     18 O18         -0.4533   0.3326   2.3578 O.3            1 <1>                0.0000
     19 C19         -0.3564  -0.7917   3.2345 C.3            1 <1>                0.0000
     20 C20         -1.6174  -1.6116   3.1413 C.ar           1 <1>                0.0000
     21 C21         -2.6269  -1.2144   2.2873 C.ar           1 <1>                0.0000
     22 C22         -3.7863  -1.9738   2.2051 C.ar           1 <1>                0.0000
     23 C23         -4.9080  -1.5700   1.2833 C.3            1 <1>                0.0000
     24 C24         -3.8884  -3.1097   2.9881 C.ar           1 <1>                0.0000
     25 C25         -2.8321  -3.4506   3.8264 C.ar           1 <1>                0.0000
     26 N26         -2.9213  -4.5893   4.6186 N.pl3          1 <1>                0.0000
     27 N27         -1.7402  -2.7028   3.8729 N.ar           1 <1>                0.0000
     28 C28          1.9260   1.5707  -3.8632 C.ar           1 <1>                0.0000
     29 H29          3.0281   3.9957  -5.2921 H              1 <1>                0.0000
     30 H30          1.7030   3.7038  -6.4441 H              1 <1>                0.0000
     31 H31          1.3400   4.0043  -4.7277 H              1 <1>                0.0000
     32 H32          2.5847   1.5227  -7.1672 H              1 <1>                0.0000
     33 H33          2.9282  -0.7827  -7.7818 H              1 <1>                0.0000
     34 H34          2.8270  -2.0435  -6.6759 H              1 <1>                0.0000
     35 H35          0.9385  -1.0249  -2.2689 H              1 <1>                0.0000
     36 H36          2.6764  -0.8588  -1.9222 H              1 <1>                0.0000
     37 H37          0.4163  -0.3422   0.0218 H              1 <1>                0.0000
     38 H38          2.1542  -0.1761   0.3685 H              1 <1>                0.0000
     39 H39          1.8336   2.2413   0.8178 H              1 <1>                0.0000
     40 H40          0.0956   2.0753   0.4710 H              1 <1>                0.0000
     41 H41          1.5819   0.5383   2.6476 H              1 <1>                0.0000
     42 H42          1.4303   3.0162   3.0596 H              1 <1>                0.0000
     43 H43         -0.3380   2.8961   2.8954 H              1 <1>                0.0000
     44 H44          0.4976  -1.4046   2.9463 H              1 <1>                0.0000
     45 H45         -0.2244  -0.4434   4.2589 H              1 <1>                0.0000
     46 H46         -2.5159  -0.3217   1.6895 H              1 <1>                0.0000
     47 H47         -4.7594  -2.0307   0.3067 H              1 <1>                0.0000
     48 H48         -5.8586  -1.9019   1.7007 H              1 <1>                0.0000
     49 H49         -4.9173  -0.4854   1.1757 H              1 <1>                0.0000
     50 H50         -4.7763  -3.7232   2.9492 H              1 <1>                0.0000
     51 H51         -3.7177  -5.1422   4.5853 H              1 <1>                0.0000
     52 H52         -2.1874  -4.8311   5.2048 H              1 <1>                0.0000
     53 H53          1.6995   2.2424  -3.0484 H              1 <1>                0.0000
@<TRIPOS>BOND
    1    1    2 1     
    2    1   29 1     
    3    1   30 1     
    4    1   31 1     
    5    2   28 ar    
    6    2    3 ar    
    7    3    4 ar    
    8    3   32 1     
    9    4    5 1     
   10    4    6 ar    
   11    5   33 1     
   12    5   34 1     
   13    6    7 ar    
   14    7    8 1     
   15    7   28 ar    
   16    8    9 1     
   17    8   35 1     
   18    8   36 1     
   19    9   10 1     
   20   10   11 1     
   21   10   37 1     
   22   10   38 1     
   23   11   12 1     
   24   11   39 1     
   25   11   40 1     
   26   12   13 1     
   27   12   18 1     
   28   12   41 1     
   29   13   14 1     
   30   13   42 1     
   31   13   43 1     
   32   14   15 1     
   33   14   16 1     
   34   14   17 1     
   35   18   19 1     
   36   19   20 1     
   37   19   44 1     
   38   19   45 1     
   39   20   27 ar    
   40   20   21 ar    
   41   21   22 ar    
   42   21   46 1     
   43   22   23 1     
   44   22   24 ar    
   45   23   47 1     
   46   23   48 1     
   47   23   49 1     
   48   24   25 ar    
   49   24   50 1     
   50   25   26 1     
   51   25   27 ar    
   52   26   51 1     
   53   26   52 1     
   54   28   53 1     
@<TRIPOS>SUBSTRUCTURE
      1 ****           1
@<TRIPOS>SET
DONOR_HYDROGENS      STATIC     ATOMS    <user>   **** ""
7 33 34 15 16 17 51 52
ATOM$RED        STATIC     ATOMS    COLORGROUP SYSTEM
7 33 34 15 16 17 51 52
