#       Name:                Q88
#       Creating user name   gbret
#       Creation time:       Fri Sep  9 15:05:17 2016


#       File generated by GOLD software.
#

@<TRIPOS>MOLECULE
Q88
    17    18     1
SMALL
NO_CHARGES


@<TRIPOS>ATOM
      1 N1           0.3241   3.2489   0.0179 N.pl3          1 <1>                0.0000
      2 C2           0.3428   1.8687   0.0103 C.2            1 <1>                0.0000
      3 N3          -0.7182   1.1008   0.0106 N.2            1 <1>                0.0000
      4 C4          -0.3326  -0.2002   0.0014 C.ar           1 <1>                0.0000
      5 C5          -1.0126  -1.4290  -0.0022 C.ar           1 <1>                0.0000
      6 N6          -2.3975  -1.4725   0.0032 N.pl3          1 <1>                0.0000
      7 N7          -0.2973  -2.5490  -0.0115 N.ar           1 <1>                0.0000
      8 C8           1.0228  -2.5169  -0.0172 C.ar           1 <1>                0.0000
      9 N9           1.7016  -1.3887  -0.0137 N.ar           1 <1>                0.0000
     10 C10          1.0714  -0.2191  -0.0049 C.ar           1 <1>                0.0000
     11 N11          1.4720   1.0972  -0.0046 N.pl3          1 <1>                0.0000
     12 H12          2.3870   1.4189  -0.0121 H              1 <1>                0.0000
     13 H13          1.1574   3.7453   0.0126 H              1 <1>                0.0000
     14 H14         -0.5225   3.7224   0.0245 H              1 <1>                0.0000
     15 H15         -2.9087  -0.6482   0.0095 H              1 <1>                0.0000
     16 H16         -2.8559  -2.3274   0.0009 H              1 <1>                0.0000
     17 H17          1.5657  -3.4505  -0.0247 H              1 <1>                0.0000
@<TRIPOS>BOND
    1    1    2 1     
    2    1   13 1     
    3    1   14 1     
    4    2   11 1     
    5    2    3 2     
    6    3    4 1     
    7    4   10 ar    
    8    4    5 ar    
    9    5    6 1     
   10    5    7 ar    
   11    6   15 1     
   12    6   16 1     
   13    7    8 ar    
   14    8    9 ar    
   15    8   17 1     
   16    9   10 ar    
   17   10   11 1     
   18   11   12 1     
@<TRIPOS>SUBSTRUCTURE
      1 ****           1
@<TRIPOS>SET
DONOR_HYDROGENS      STATIC     ATOMS    <user>   **** ""
5 13 14 15 16 12
ATOM$RED        STATIC     ATOMS    COLORGROUP SYSTEM
5 13 14 15 16 12
