#       Name:                QAY
#       Creating user name   gbret
#       Creation time:       Fri Sep  9 15:05:59 2016


#       File generated by GOLD software.
#

@<TRIPOS>MOLECULE
QAY
    32    34     1
SMALL
NO_CHARGES


@<TRIPOS>ATOM
      1 N1           3.9245  -1.6425  -3.7418 N.4            1 <1>                0.0000
      2 H2           3.9382  -2.6514  -3.7474 H              1 <1>                0.0000
      3 H3           4.8711  -1.2932  -3.7490 H              1 <1>                0.0000
      4 H4           3.4365  -1.3082  -4.5593 H              1 <1>                0.0000
      5 C5           3.2369  -1.1687  -2.5332 C.3            1 <1>                0.0000
      6 C6           1.8015  -1.6983  -2.5224 C.3            1 <1>                0.0000
      7 C7           1.0961  -1.2123  -1.2825 C.2            1 <1>                0.0000
      8 C8           1.0607  -1.8668  -0.0459 C.2            1 <1>                0.0000
      9 N9           0.3550  -1.1423   0.7840 N.2            1 <1>                0.0000
     10 N10         -0.0845   0.0010   0.1040 N.pl3          1 <1>                0.0000
     11 C11          0.3906  -0.0637  -1.1672 C.2            1 <1>                0.0000
     12 C12         -0.8672   1.0262   0.6386 C.ar           1 <1>                0.0000
     13 N13         -0.8210   2.2362   0.1121 N.ar           1 <1>                0.0000
     14 C14         -1.5388   3.2440   0.5761 C.ar           1 <1>                0.0000
     15 C15         -2.3891   3.0879   1.6517 C.ar           1 <1>                0.0000
     16 C16         -2.4815   1.8323   2.2511 C.ar           1 <1>                0.0000
     17 C17         -1.7087   0.7703   1.7332 C.ar           1 <1>                0.0000
     18 N18         -1.7959  -0.4493   2.3130 N.2            1 <1>                0.0000
     19 C19         -2.5728  -0.6630   3.3325 C.2            1 <1>                0.0000
     20 N20         -3.3509   0.2977   3.8962 N.am           1 <1>                0.0000
     21 H21         -3.9109   0.0779   4.6571 H              1 <1>                0.0000
     22 C22         -3.3557   1.5587   3.4009 C.2            1 <1>                0.0000
     23 O23         -4.0463   2.4310   3.8940 O.2            1 <1>                0.0000
     24 H24          3.7641  -1.5298  -1.6502 H              1 <1>                0.0000
     25 H25          3.2221  -0.0788  -2.5272 H              1 <1>                0.0000
     26 H26          1.2743  -1.3372  -3.4054 H              1 <1>                0.0000
     27 H27          1.8163  -2.7882  -2.5284 H              1 <1>                0.0000
     28 H28          1.5349  -2.8095   0.1840 H              1 <1>                0.0000
     29 H29          0.2287   0.6662  -1.9466 H              1 <1>                0.0000
     30 H30         -1.4579   4.2115   0.1032 H              1 <1>                0.0000
     31 H31         -2.9700   3.9200   2.0212 H              1 <1>                0.0000
     32 H32         -2.6018  -1.6570   3.7538 H              1 <1>                0.0000
@<TRIPOS>BOND
    1    1    2 1     
    2    1    3 1     
    3    1    4 1     
    4    1    5 1     
    5    5    6 1     
    6    5   24 1     
    7    5   25 1     
    8    6    7 1     
    9    6   26 1     
   10    6   27 1     
   11    7   11 2     
   12    7    8 1     
   13    8    9 2     
   14    8   28 1     
   15    9   10 1     
   16   10   11 1     
   17   10   12 1     
   18   11   29 1     
   19   12   17 ar    
   20   12   13 ar    
   21   13   14 ar    
   22   14   15 ar    
   23   14   30 1     
   24   15   16 ar    
   25   15   31 1     
   26   16   22 1     
   27   16   17 ar    
   28   17   18 1     
   29   18   19 2     
   30   19   20 1     
   31   19   32 1     
   32   20   21 1     
   33   20   22 am    
   34   22   23 2     
@<TRIPOS>SUBSTRUCTURE
      1 ****           1
@<TRIPOS>SET
DONOR_HYDROGENS      STATIC     ATOMS    <user>   **** ""
4 2 3 4 21
ATOM$RED        STATIC     ATOMS    COLORGROUP SYSTEM
4 2 3 4 21
