#       Name:                QEM
#       Creating user name   gbret
#       Creation time:       Fri Sep  9 15:07:37 2016


#       File generated by GOLD software.
#

@<TRIPOS>MOLECULE
QEM
    55    57     1
SMALL
NO_CHARGES


@<TRIPOS>ATOM
      1 C1          -1.5109  -1.6890  -1.7952 C.3            1 <1>                0.0000
      2 C2          -1.9319  -1.2665  -0.3863 C.3            1 <1>                0.0000
      3 C3          -1.7117   0.2382  -0.2180 C.3            1 <1>                0.0000
      4 N4          -0.2804   0.5414  -0.3498 N.4            1 <1>                0.0000
      5 H5           0.0294   0.2995  -1.2791 H              1 <1>                0.0000
      6 C6           0.4766  -0.2401   0.6355 C.3            1 <1>                0.0000
      7 C7           1.9745   0.0105   0.4489 C.3            1 <1>                0.0000
      8 C8           2.2655   1.5012   0.6449 C.3            1 <1>                0.0000
      9 C9           3.7482   1.7719   0.3818 C.3            1 <1>                0.0000
     10 C10          4.0586   3.2133   0.6935 C.ar           1 <1>                0.0000
     11 C11          3.9402   4.1747  -0.2927 C.ar           1 <1>                0.0000
     12 C12          4.2250   5.4968  -0.0068 C.ar           1 <1>                0.0000
     13 C13          4.6277   5.8576   1.2654 C.ar           1 <1>                0.0000
     14 C14          4.7452   4.8964   2.2519 C.ar           1 <1>                0.0000
     15 C15          4.4563   3.5749   1.9671 C.ar           1 <1>                0.0000
     16 C16          1.4148   2.3108  -0.3380 C.3            1 <1>                0.0000
     17 C17         -0.0622   1.9747  -0.1205 C.3            1 <1>                0.0000
     18 C18         -3.4122  -1.5918  -0.1773 C.3            1 <1>                0.0000
     19 O19         -4.1853  -0.9786  -1.2109 O.3            1 <1>                0.0000
     20 C20         -3.6094  -3.0852  -0.2212 C.ar           1 <1>                0.0000
     21 C21         -3.6674  -3.7381  -1.4386 C.ar           1 <1>                0.0000
     22 C22         -3.8481  -5.1070  -1.4816 C.ar           1 <1>                0.0000
     23 C23         -3.9710  -5.8267  -0.3019 C.ar           1 <1>                0.0000
     24 O24         -4.1484  -7.1735  -0.3415 O.3            1 <1>                0.0000
     25 C25         -3.9121  -5.1692   0.9183 C.ar           1 <1>                0.0000
     26 C26         -3.7264  -3.8008   0.9560 C.ar           1 <1>                0.0000
     27 H27         -0.4818  -1.3783  -1.9755 H              1 <1>                0.0000
     28 H28         -1.5846  -2.7727  -1.8868 H              1 <1>                0.0000
     29 H29         -2.1664  -1.2172  -2.5272 H              1 <1>                0.0000
     30 H30         -1.3341  -1.8056   0.3486 H              1 <1>                0.0000
     31 H31         -2.2690   0.7751  -0.9856 H              1 <1>                0.0000
     32 H32         -2.0595   0.5483   0.7674 H              1 <1>                0.0000
     33 H33          0.1810   0.0597   1.6409 H              1 <1>                0.0000
     34 H34          0.2660  -1.3005   0.4968 H              1 <1>                0.0000
     35 H35          2.5347  -0.5692   1.1825 H              1 <1>                0.0000
     36 H36          2.2713  -0.2892  -0.5562 H              1 <1>                0.0000
     37 H37          2.0180   1.7896   1.6665 H              1 <1>                0.0000
     38 H38          4.3539   1.1245   1.0158 H              1 <1>                0.0000
     39 H39          3.9742   1.5698  -0.6652 H              1 <1>                0.0000
     40 H40          3.6256   3.8928  -1.2867 H              1 <1>                0.0000
     41 H41          4.1332   6.2479  -0.7774 H              1 <1>                0.0000
     42 H42          4.8509   6.8905   1.4886 H              1 <1>                0.0000
     43 H43          5.0602   5.1782   3.2457 H              1 <1>                0.0000
     44 H44          4.5481   2.8238   2.7377 H              1 <1>                0.0000
     45 H45          1.5749   3.3753  -0.1668 H              1 <1>                0.0000
     46 H46          1.6999   2.0588  -1.3594 H              1 <1>                0.0000
     47 H47         -0.6716   2.5491  -0.8182 H              1 <1>                0.0000
     48 H48         -0.3453   2.2276   0.9013 H              1 <1>                0.0000
     49 H49         -3.7346  -1.2111   0.7919 H              1 <1>                0.0000
     50 H50         -3.9520  -1.2711  -2.1026 H              1 <1>                0.0000
     51 H51         -3.5716  -3.1774  -2.3567 H              1 <1>                0.0000
     52 H52         -3.8939  -5.6165  -2.4327 H              1 <1>                0.0000
     53 H53         -3.3242  -7.6792  -0.3325 H              1 <1>                0.0000
     54 H54         -4.0079  -5.7272   1.8381 H              1 <1>                0.0000
     55 H55         -3.6802  -3.2886   1.9057 H              1 <1>                0.0000
@<TRIPOS>BOND
    1    1    2 1     
    2    1   27 1     
    3    1   28 1     
    4    1   29 1     
    5    2    3 1     
    6    2   18 1     
    7    2   30 1     
    8    3    4 1     
    9    3   31 1     
   10    3   32 1     
   11    4    5 1     
   12    4   17 1     
   13    4    6 1     
   14    6    7 1     
   15    6   33 1     
   16    6   34 1     
   17    7    8 1     
   18    7   35 1     
   19    7   36 1     
   20    8    9 1     
   21    8   16 1     
   22    8   37 1     
   23    9   10 1     
   24    9   38 1     
   25    9   39 1     
   26   10   15 ar    
   27   10   11 ar    
   28   11   12 ar    
   29   11   40 1     
   30   12   13 ar    
   31   12   41 1     
   32   13   14 ar    
   33   13   42 1     
   34   14   15 ar    
   35   14   43 1     
   36   15   44 1     
   37   16   17 1     
   38   16   45 1     
   39   16   46 1     
   40   17   47 1     
   41   17   48 1     
   42   18   19 1     
   43   18   20 1     
   44   18   49 1     
   45   19   50 1     
   46   20   26 ar    
   47   20   21 ar    
   48   21   22 ar    
   49   21   51 1     
   50   22   23 ar    
   51   22   52 1     
   52   23   24 1     
   53   23   25 ar    
   54   24   53 1     
   55   25   26 ar    
   56   25   54 1     
   57   26   55 1     
@<TRIPOS>SUBSTRUCTURE
      1 ****           1
@<TRIPOS>SET
DONOR_HYDROGENS      STATIC     ATOMS    <user>   **** ""
3 5 50 53
ATOM$RED        STATIC     ATOMS    COLORGROUP SYSTEM
3 5 50 53
