#       Name:                QG8
#       Creating user name   gbret
#       Creation time:       Fri Sep  9 15:07:55 2016


#       File generated by GOLD software.
#

@<TRIPOS>MOLECULE
QG8
   106   111     1
SMALL
NO_CHARGES


@<TRIPOS>ATOM
      1 C1          -0.6178   7.4133   3.4132 C.3            1 <1>                0.0000
      2 O2           0.0053   6.1979   2.9203 O.3            1 <1>                0.0000
      3 C3          -0.8160   5.2097   2.5182 C.2            1 <1>                0.0000
      4 O4          -2.0205   5.3588   2.5776 O.2            1 <1>                0.0000
      5 N5          -0.3022   4.0551   2.0498 N.am           1 <1>                0.0000
      6 C6          -1.1959   2.9798   1.6124 C.3            1 <1>                0.0000
      7 C7          -0.6642   2.3711   0.3404 C.2            1 <1>                0.0000
      8 O8           0.5077   2.4935   0.0532 O.2            1 <1>                0.0000
      9 N9          -1.4910   1.6905  -0.4779 N.am           1 <1>                0.0000
     10 N10         -1.0317   1.2191  -1.6748 N.3            1 <1>                0.0000
     11 C11         -1.1443  -0.2440  -1.7426 C.3            1 <1>                0.0000
     12 C12         -0.2732  -0.8736  -0.6537 C.3            1 <1>                0.0000
     13 C13         -0.2979  -2.3966  -0.7979 C.3            1 <1>                0.0000
     14 C14          0.4949  -3.0302   0.3471 C.3            1 <1>                0.0000
     15 C15          1.9406  -2.5292   0.3371 C.3            1 <1>                0.0000
     16 C16          2.6048  -2.9373  -0.9526 C.ar           1 <1>                0.0000
     17 C17          3.2551  -4.1540  -1.0402 C.ar           1 <1>                0.0000
     18 C18          3.8644  -4.5284  -2.2232 C.ar           1 <1>                0.0000
     19 C19          3.8229  -3.6863  -3.3187 C.ar           1 <1>                0.0000
     20 C20          3.1718  -2.4701  -3.2313 C.ar           1 <1>                0.0000
     21 C21          2.5589  -2.0975  -2.0496 C.ar           1 <1>                0.0000
     22 C22         -0.1776  -2.7240   1.7054 C.3            1 <1>                0.0000
     23 O23         -1.5753  -2.4767   1.5398 O.3            1 <1>                0.0000
     24 C24          0.0633  -4.0389   2.4796 C.3            1 <1>                0.0000
     25 N25          0.2082  -5.0771   1.4525 N.am           1 <1>                0.0000
     26 C26          0.0963  -6.5151   1.7092 C.3            1 <1>                0.0000
     27 C27         -1.0049  -7.1334   0.8219 C.3            1 <1>                0.0000
     28 O28         -1.1737  -6.3775  -0.3790 O.3            1 <1>                0.0000
     29 C29         -0.4341  -8.5338   0.5131 C.3            1 <1>                0.0000
     30 C30          1.0682  -8.3813   0.6188 C.ar           1 <1>                0.0000
     31 C31          2.0877  -9.1936   0.1509 C.ar           1 <1>                0.0000
     32 C32          3.4070  -8.8483   0.3689 C.ar           1 <1>                0.0000
     33 C33          3.7119  -7.6881   1.0563 C.ar           1 <1>                0.0000
     34 C34          2.6966  -6.8768   1.5235 C.ar           1 <1>                0.0000
     35 C35          1.3730  -7.2215   1.3060 C.ar           1 <1>                0.0000
     36 C36          0.4568  -4.5391   0.2460 C.2            1 <1>                0.0000
     37 O37          0.6255  -5.1714  -0.7751 O.2            1 <1>                0.0000
     38 C38         -1.7369   1.8539  -2.7963 C.3            1 <1>                0.0000
     39 C39         -1.4975   3.3413  -2.7629 C.ar           1 <1>                0.0000
     40 C40         -2.3556   4.1616  -2.0528 C.ar           1 <1>                0.0000
     41 C41         -2.1410   5.5246  -2.0188 C.ar           1 <1>                0.0000
     42 C42         -1.0577   6.0739  -2.7015 C.ar           1 <1>                0.0000
     43 C43         -0.1965   5.2430  -3.4152 C.ar           1 <1>                0.0000
     44 C44         -0.4173   3.8807  -3.4378 C.ar           1 <1>                0.0000
     45 C45         -0.8222   7.5387  -2.6690 C.ar           1 <1>                0.0000
     46 C46         -1.6803   8.3691  -1.9509 C.ar           1 <1>                0.0000
     47 C47         -1.4563   9.7307  -1.9237 C.ar           1 <1>                0.0000
     48 C48         -0.3826  10.2713  -2.6080 C.ar           1 <1>                0.0000
     49 C49          0.4721   9.4517  -3.3228 C.ar           1 <1>                0.0000
     50 C50          0.2611   8.0880  -3.3517 C.ar           1 <1>                0.0000
     51 C51         -1.2714   1.9056   2.6992 C.3            1 <1>                0.0000
     52 C52         -1.7405   2.5390   4.0106 C.3            1 <1>                0.0000
     53 C53         -2.2617   0.8193   2.2746 C.3            1 <1>                0.0000
     54 C54          0.1124   1.2842   2.8992 C.3            1 <1>                0.0000
     55 H55          0.1546   8.1257   3.7032 H              1 <1>                0.0000
     56 H56         -1.2370   7.8481   2.6286 H              1 <1>                0.0000
     57 H57         -1.2386   7.1784   4.2778 H              1 <1>                0.0000
     58 H58          0.6593   3.9361   2.0024 H              1 <1>                0.0000
     59 H59         -2.1915   3.3854   1.4325 H              1 <1>                0.0000
     60 H60         -2.4123   1.5355  -0.2169 H              1 <1>                0.0000
     61 H61         -2.1835  -0.5359  -1.5905 H              1 <1>                0.0000
     62 H62         -0.8094  -0.5893  -2.7207 H              1 <1>                0.0000
     63 H63          0.7512  -0.5155  -0.7557 H              1 <1>                0.0000
     64 H64         -0.6595  -0.5952   0.3268 H              1 <1>                0.0000
     65 H65         -1.3291  -2.7481  -0.7639 H              1 <1>                0.0000
     66 H66          0.1510  -2.6787  -1.7503 H              1 <1>                0.0000
     67 H67          1.9491  -1.4426   0.4222 H              1 <1>                0.0000
     68 H68          2.4815  -2.9637   1.1778 H              1 <1>                0.0000
     69 H69          3.2875  -4.8119  -0.1843 H              1 <1>                0.0000
     70 H70          4.3731  -5.4786  -2.2915 H              1 <1>                0.0000
     71 H71          4.2996  -3.9785  -4.2428 H              1 <1>                0.0000
     72 H72          3.1397  -1.8120  -4.0871 H              1 <1>                0.0000
     73 H73          2.0502  -1.1473  -1.9813 H              1 <1>                0.0000
     74 H74          0.3091  -1.8840   2.2010 H              1 <1>                0.0000
     75 H75         -2.0403  -2.2799   2.3645 H              1 <1>                0.0000
     76 H76          0.9746  -3.9656   3.0731 H              1 <1>                0.0000
     77 H77         -0.7892  -4.2600   3.1218 H              1 <1>                0.0000
     78 H78         -0.1190  -6.6951   2.7624 H              1 <1>                0.0000
     79 H79         -1.9459  -7.2069   1.3671 H              1 <1>                0.0000
     80 H80         -1.8549  -6.7258  -0.9705 H              1 <1>                0.0000
     81 H81         -0.7931  -9.2582   1.2441 H              1 <1>                0.0000
     82 H82         -0.7130  -8.8421  -0.4945 H              1 <1>                0.0000
     83 H83          1.8503 -10.1002  -0.3858 H              1 <1>                0.0000
     84 H84          4.1997  -9.4840   0.0031 H              1 <1>                0.0000
     85 H85          4.7430  -7.4167   1.2279 H              1 <1>                0.0000
     86 H86          2.9356  -5.9709   2.0607 H              1 <1>                0.0000
     87 H87         -1.3648   1.4470  -3.7365 H              1 <1>                0.0000
     88 H88         -2.8055   1.6559  -2.7123 H              1 <1>                0.0000
     89 H89         -3.1951   3.7348  -1.5243 H              1 <1>                0.0000
     90 H90         -2.8118   6.1642  -1.4644 H              1 <1>                0.0000
     91 H91          0.6445   5.6636  -3.9464 H              1 <1>                0.0000
     92 H92          0.2498   3.2357  -3.9903 H              1 <1>                0.0000
     93 H93         -2.5194   7.9480  -1.4169 H              1 <1>                0.0000
     94 H94         -2.1208  10.3752  -1.3675 H              1 <1>                0.0000
     95 H95         -0.2113  11.3374  -2.5843 H              1 <1>                0.0000
     96 H96          1.3087   9.8791  -3.8555 H              1 <1>                0.0000
     97 H97          0.9291   7.4490  -3.9101 H              1 <1>                0.0000
     98 H98         -2.7263   2.9816   3.8681 H              1 <1>                0.0000
     99 H99         -1.7943   1.7736   4.7848 H              1 <1>                0.0000
    100 H100        -1.0350   3.3128   4.3130 H              1 <1>                0.0000
    101 H101        -1.9112   0.3467   1.3570 H              1 <1>                0.0000
    102 H102        -2.3391   0.0701   3.0625 H              1 <1>                0.0000
    103 H103        -3.2403   1.2672   2.1018 H              1 <1>                0.0000
    104 H104         0.8043   2.0461   3.2583 H              1 <1>                0.0000
    105 H105         0.0468   0.4790   3.6310 H              1 <1>                0.0000
    106 H106         0.4719   0.8849   1.9508 H              1 <1>                0.0000
@<TRIPOS>BOND
    1    1    2 1     
    2    1   55 1     
    3    1   56 1     
    4    1   57 1     
    5    2    3 1     
    6    3    4 2     
    7    3    5 am    
    8    5    6 1     
    9    5   58 1     
   10    6    7 1     
   11    6   51 1     
   12    6   59 1     
   13    7    8 2     
   14    7    9 am    
   15    9   10 1     
   16    9   60 1     
   17   10   11 1     
   18   10   38 1     
   19   11   12 1     
   20   11   61 1     
   21   11   62 1     
   22   12   13 1     
   23   12   63 1     
   24   12   64 1     
   25   13   14 1     
   26   13   65 1     
   27   13   66 1     
   28   14   36 1     
   29   14   15 1     
   30   14   22 1     
   31   15   16 1     
   32   15   67 1     
   33   15   68 1     
   34   16   21 ar    
   35   16   17 ar    
   36   17   18 ar    
   37   17   69 1     
   38   18   19 ar    
   39   18   70 1     
   40   19   20 ar    
   41   19   71 1     
   42   20   21 ar    
   43   20   72 1     
   44   21   73 1     
   45   22   23 1     
   46   22   24 1     
   47   22   74 1     
   48   23   75 1     
   49   24   25 1     
   50   24   76 1     
   51   24   77 1     
   52   25   26 1     
   53   25   36 am    
   54   26   35 1     
   55   26   27 1     
   56   26   78 1     
   57   27   28 1     
   58   27   29 1     
   59   27   79 1     
   60   28   80 1     
   61   29   30 1     
   62   29   81 1     
   63   29   82 1     
   64   30   35 ar    
   65   30   31 ar    
   66   31   32 ar    
   67   31   83 1     
   68   32   33 ar    
   69   32   84 1     
   70   33   34 ar    
   71   33   85 1     
   72   34   35 ar    
   73   34   86 1     
   74   36   37 2     
   75   38   39 1     
   76   38   87 1     
   77   38   88 1     
   78   39   44 ar    
   79   39   40 ar    
   80   40   41 ar    
   81   40   89 1     
   82   41   42 ar    
   83   41   90 1     
   84   42   43 ar    
   85   42   45 1     
   86   43   44 ar    
   87   43   91 1     
   88   44   92 1     
   89   45   50 ar    
   90   45   46 ar    
   91   46   47 ar    
   92   46   93 1     
   93   47   48 ar    
   94   47   94 1     
   95   48   49 ar    
   96   48   95 1     
   97   49   50 ar    
   98   49   96 1     
   99   50   97 1     
  100   51   52 1     
  101   51   53 1     
  102   51   54 1     
  103   52   98 1     
  104   52   99 1     
  105   52  100 1     
  106   53  101 1     
  107   53  102 1     
  108   53  103 1     
  109   54  104 1     
  110   54  105 1     
  111   54  106 1     
@<TRIPOS>SUBSTRUCTURE
      1 ****           1
@<TRIPOS>SET
DONOR_HYDROGENS      STATIC     ATOMS    <user>   **** ""
4 58 60 75 80
ATOM$RED        STATIC     ATOMS    COLORGROUP SYSTEM
4 58 60 75 80
