#       Name:                QK0
#       Creating user name   gbret
#       Creation time:       Fri Sep  9 15:09:54 2016


#       File generated by GOLD software.
#

@<TRIPOS>MOLECULE
QK0
    45    48     1
SMALL
NO_CHARGES


@<TRIPOS>ATOM
      1 C1           0.0914   8.6669  -1.0018 C.3            1 <1>                0.0000
      2 C2           0.1119   7.1600  -1.0101 C.2            1 <1>                0.0000
      3 O3           1.1702   6.5681  -1.0234 O.2            1 <1>                0.0000
      4 N4          -1.0460   6.4703  -1.0027 N.am           1 <1>                0.0000
      5 C5          -1.0272   5.0853  -1.0103 C.2            1 <1>                0.0000
      6 N6           0.0402   4.3644  -1.0188 N.2            1 <1>                0.0000
      7 C7          -0.1022   3.0251  -1.0250 C.ar           1 <1>                0.0000
      8 C8           0.9017   2.0314  -1.0346 C.ar           1 <1>                0.0000
      9 C9           0.5733   0.7126  -1.0399 C.ar           1 <1>                0.0000
     10 C10         -0.7663   0.3121  -1.0365 C.ar           1 <1>                0.0000
     11 C11         -1.7712   1.2705  -1.0271 C.ar           1 <1>                0.0000
     12 C12         -1.4422   2.6217  -1.0211 C.ar           1 <1>                0.0000
     13 S13         -2.4569   4.0621  -1.0022 S.3            1 <1>                0.0000
     14 C14         -1.1125  -1.1302  -1.0433 C.ar           1 <1>                0.0000
     15 C15         -2.4453  -1.5374  -1.0458 C.ar           1 <1>                0.0000
     16 N16         -2.7590  -2.8170  -1.0519 N.ar           1 <1>                0.0000
     17 C17         -1.8375  -3.7610  -1.0564 C.ar           1 <1>                0.0000
     18 Cl18        -2.3202  -5.4285  -1.0649 Cl             1 <1>                0.0000
     19 C19         -0.4842  -3.4384  -1.0547 C.ar           1 <1>                0.0000
     20 N20          0.4841  -4.4467  -1.0599 N.pl3          1 <1>                0.0000
     21 S21          1.9049  -4.2345  -0.2363 S.o2           1 <1>                0.0000
     22 O22          2.6497  -5.4328  -0.4055 O.2            1 <1>                0.0000
     23 O23          2.3971  -2.9544  -0.6084 O.2            1 <1>                0.0000
     24 C24          1.5049  -4.1350   1.4768 C.ar           1 <1>                0.0000
     25 C25          1.2215  -2.9092   2.0498 C.ar           1 <1>                0.0000
     26 C26          0.9076  -2.8299   3.3934 C.ar           1 <1>                0.0000
     27 C27          0.8766  -3.9789   4.1655 C.ar           1 <1>                0.0000
     28 F28          0.5694  -3.9026   5.4789 F              1 <1>                0.0000
     29 C29          1.1602  -5.2060   3.5904 C.ar           1 <1>                0.0000
     30 C30          1.4691  -5.2834   2.2456 C.ar           1 <1>                0.0000
     31 C31         -0.1074  -2.1004  -1.0533 C.ar           1 <1>                0.0000
     32 H32          1.1140   9.0442  -1.0095 H              1 <1>                0.0000
     33 H33         -0.4357   9.0280  -1.8849 H              1 <1>                0.0000
     34 H34         -0.4188   9.0184  -0.1050 H              1 <1>                0.0000
     35 H35         -1.8925   6.9438  -0.9921 H              1 <1>                0.0000
     36 H36          1.9416   2.3229  -1.0381 H              1 <1>                0.0000
     37 H37          1.3545  -0.0331  -1.0472 H              1 <1>                0.0000
     38 H38         -2.8076   0.9667  -1.0247 H              1 <1>                0.0000
     39 H39         -3.2301  -0.7955  -1.0423 H              1 <1>                0.0000
     40 H40          0.3237  -5.2707  -1.5460 H              1 <1>                0.0000
     41 H41          1.2457  -2.0132   1.4474 H              1 <1>                0.0000
     42 H42          0.6869  -1.8722   3.8410 H              1 <1>                0.0000
     43 H43          1.1366  -6.1028   4.1917 H              1 <1>                0.0000
     44 H44          1.6900  -6.2405   1.7967 H              1 <1>                0.0000
     45 H45          0.9351  -1.8183  -1.0524 H              1 <1>                0.0000
@<TRIPOS>BOND
    1    1    2 1     
    2    1   32 1     
    3    1   33 1     
    4    1   34 1     
    5    2    3 2     
    6    2    4 am    
    7    4    5 1     
    8    4   35 1     
    9    5   13 1     
   10    5    6 2     
   11    6    7 1     
   12    7   12 ar    
   13    7    8 ar    
   14    8    9 ar    
   15    8   36 1     
   16    9   10 ar    
   17    9   37 1     
   18   10   11 ar    
   19   10   14 1     
   20   11   12 ar    
   21   11   38 1     
   22   12   13 1     
   23   14   31 ar    
   24   14   15 ar    
   25   15   16 ar    
   26   15   39 1     
   27   16   17 ar    
   28   17   18 1     
   29   17   19 ar    
   30   19   20 1     
   31   19   31 ar    
   32   20   21 1     
   33   20   40 1     
   34   21   22 2     
   35   21   23 2     
   36   21   24 1     
   37   24   30 ar    
   38   24   25 ar    
   39   25   26 ar    
   40   25   41 1     
   41   26   27 ar    
   42   26   42 1     
   43   27   28 1     
   44   27   29 ar    
   45   29   30 ar    
   46   29   43 1     
   47   30   44 1     
   48   31   45 1     
@<TRIPOS>SUBSTRUCTURE
      1 ****           1
@<TRIPOS>SET
DONOR_HYDROGENS      STATIC     ATOMS    <user>   **** ""
2 35 40
ATOM$RED        STATIC     ATOMS    COLORGROUP SYSTEM
2 35 40
