#       Name:                QNO
#       Creating user name   gbret
#       Creation time:       Fri Sep  9 15:11:55 2016


#       File generated by GOLD software.
#

@<TRIPOS>MOLECULE
QNO
    46    47     1
SMALL
NO_CHARGES


@<TRIPOS>ATOM
      1 C1          -2.1266   7.2514   3.2569 C.3            1 <1>                0.0000
      2 C2          -2.1058   5.7215   3.2485 C.3            1 <1>                0.0000
      3 C3          -1.3897   5.2281   1.9897 C.3            1 <1>                0.0000
      4 C4          -1.3689   3.6983   1.9813 C.3            1 <1>                0.0000
      5 C5          -0.6528   3.2049   0.7225 C.3            1 <1>                0.0000
      6 C6          -0.6321   1.6750   0.7141 C.3            1 <1>                0.0000
      7 C7           0.0841   1.1816  -0.5447 C.3            1 <1>                0.0000
      8 C8           0.1048  -0.3482  -0.5531 C.3            1 <1>                0.0000
      9 C9           0.8210  -0.8417  -1.8119 C.3            1 <1>                0.0000
     10 C10          0.8414  -2.3485  -1.8202 C.ar           1 <1>                0.0000
     11 C11         -0.2531  -3.0368  -2.3322 C.ar           1 <1>                0.0000
     12 C12         -0.2481  -4.4188  -2.3467 C.ar           1 <1>                0.0000
     13 O13         -1.3017  -5.1166  -2.8405 O.3            1 <1>                0.0000
     14 C14          0.8882  -5.0827  -1.8319 C.ar           1 <1>                0.0000
     15 C15          0.9689  -6.4829  -1.8123 C.ar           1 <1>                0.0000
     16 C16          2.0811  -7.0862  -1.3083 C.ar           1 <1>                0.0000
     17 C17          3.1403  -6.3300  -0.8110 C.ar           1 <1>                0.0000
     18 C18          3.0942  -4.9698  -0.8147 C.ar           1 <1>                0.0000
     19 C19          1.9630  -4.3114  -1.3278 C.ar           1 <1>                0.0000
     20 N20          1.8939  -2.9751  -1.3489 N.pl3          1 <1>                0.0000
     21 O21          2.9800  -2.2190  -0.8452 O.2            1 <1>                0.0000
     22 H22         -1.1040   7.6287   3.2492 H              1 <1>                0.0000
     23 H23         -2.6538   7.6124   2.3739 H              1 <1>                0.0000
     24 H24         -2.6368   7.6029   4.1537 H              1 <1>                0.0000
     25 H25         -1.5786   5.3605   4.1316 H              1 <1>                0.0000
     26 H26         -3.1284   5.3442   3.2563 H              1 <1>                0.0000
     27 H27         -1.9169   5.5892   1.1067 H              1 <1>                0.0000
     28 H28         -0.3671   5.6054   1.9820 H              1 <1>                0.0000
     29 H29         -0.8418   3.3372   2.8644 H              1 <1>                0.0000
     30 H30         -2.3915   3.3210   1.9890 H              1 <1>                0.0000
     31 H31         -1.1800   3.5659  -0.1606 H              1 <1>                0.0000
     32 H32          0.3698   3.5821   0.7148 H              1 <1>                0.0000
     33 H33         -0.1049   1.3139   1.5971 H              1 <1>                0.0000
     34 H34         -1.6546   1.2977   0.7218 H              1 <1>                0.0000
     35 H35         -0.4431   1.5427  -1.4278 H              1 <1>                0.0000
     36 H36          1.1067   1.5589  -0.5525 H              1 <1>                0.0000
     37 H37          0.6320  -0.7093   0.3299 H              1 <1>                0.0000
     38 H38         -0.9178  -0.7255  -0.5454 H              1 <1>                0.0000
     39 H39          0.2938  -0.4806  -2.6950 H              1 <1>                0.0000
     40 H40          1.8436  -0.4644  -1.8197 H              1 <1>                0.0000
     41 H41         -1.1037  -2.4936  -2.7167 H              1 <1>                0.0000
     42 H42         -1.2375  -5.3092  -3.7860 H              1 <1>                0.0000
     43 H43          0.1536  -7.0793  -2.1945 H              1 <1>                0.0000
     44 H44          2.1426  -8.1643  -1.2935 H              1 <1>                0.0000
     45 H45          4.0117  -6.8311  -0.4160 H              1 <1>                0.0000
     46 H46          3.9235  -4.3984  -0.4248 H              1 <1>                0.0000
@<TRIPOS>BOND
    1    1    2 1     
    2    1   22 1     
    3    1   23 1     
    4    1   24 1     
    5    2    3 1     
    6    2   25 1     
    7    2   26 1     
    8    3    4 1     
    9    3   27 1     
   10    3   28 1     
   11    4    5 1     
   12    4   29 1     
   13    4   30 1     
   14    5    6 1     
   15    5   31 1     
   16    5   32 1     
   17    6    7 1     
   18    6   33 1     
   19    6   34 1     
   20    7    8 1     
   21    7   35 1     
   22    7   36 1     
   23    8    9 1     
   24    8   37 1     
   25    8   38 1     
   26    9   10 1     
   27    9   39 1     
   28    9   40 1     
   29   10   20 ar    
   30   10   11 ar    
   31   11   12 ar    
   32   11   41 1     
   33   12   13 1     
   34   12   14 ar    
   35   13   42 1     
   36   14   19 ar    
   37   14   15 ar    
   38   15   16 ar    
   39   15   43 1     
   40   16   17 ar    
   41   16   44 1     
   42   17   18 ar    
   43   17   45 1     
   44   18   19 ar    
   45   18   46 1     
   46   19   20 ar    
   47   20   21 1     
@<TRIPOS>SUBSTRUCTURE
      1 ****           1
@<TRIPOS>SET
DONOR_HYDROGENS      STATIC     ATOMS    <user>   **** ""
1 42
ATOM$RED        STATIC     ATOMS    COLORGROUP SYSTEM
1 42
