#       Name:                QTP
#       Creating user name   gbret
#       Creation time:       Fri Sep  9 15:13:45 2016


#       File generated by GOLD software.
#

@<TRIPOS>MOLECULE
QTP
    44    46     1
SMALL
NO_CHARGES


@<TRIPOS>ATOM
      1 C1           0.9712   4.7982  -4.3643 C.3            1 <1>                0.0000
      2 C2           0.9917   3.2913  -4.3726 C.ar           1 <1>                0.0000
      3 C3           0.9957   2.5877  -5.5621 C.ar           1 <1>                0.0000
      4 C4           1.0146   1.2023  -5.5368 C.ar           1 <1>                0.0000
      5 N5           1.0284   0.5376  -4.3997 N.ar           1 <1>                0.0000
      6 C6           1.0253   1.1611  -3.2326 C.ar           1 <1>                0.0000
      7 N7           1.0363   0.7336  -1.9224 N.pl3          1 <1>                0.0000
      8 C8           1.0249   1.8413  -1.1314 C.2            1 <1>                0.0000
      9 N9           1.0077   2.9150  -1.8661 N.2            1 <1>                0.0000
     10 C10          1.0129   2.5666  -3.1773 C.ar           1 <1>                0.0000
     11 C11          1.0566  -0.6580  -1.4649 C.3            1 <1>                0.0000
     12 C12          2.5113  -1.1642  -1.3469 C.3            1 <1>                0.0000
     13 C13          2.4937  -2.0685  -0.0942 C.3            1 <1>                0.0000
     14 O14          3.3802  -1.5587   0.9039 O.3            1 <1>                0.0000
     15 C15          1.0304  -2.0018   0.3964 C.3            1 <1>                0.0000
     16 C16          0.9811  -1.9974   1.9256 C.3            1 <1>                0.0000
     17 O17         -0.3797  -2.0529   2.3584 O.3            1 <1>                0.0000
     18 P18         -0.8063  -2.0644   3.9108 P.3            1 <1>                0.0000
     19 O19         -0.2941  -3.3614   4.5761 O.co2          1 <1>                0.0000
     20 O20         -0.1881  -0.8411   4.6238 O.co2          1 <1>                0.0000
     21 O21         -2.4107  -1.9990   4.0270 O.3            1 <1>                0.0000
     22 P22         -3.4311  -1.5818   5.2004 P.3            1 <1>                0.0000
     23 O23         -3.4871  -2.7065   6.2582 O.co2          1 <1>                0.0000
     24 O24         -2.9452  -0.2741   5.8645 O.co2          1 <1>                0.0000
     25 O25         -4.8992  -1.3552   4.5796 O.3            1 <1>                0.0000
     26 P26         -6.2146  -0.5709   5.0763 P.3            1 <1>                0.0000
     27 O27         -6.0509   0.9598   4.7855 O.co2          1 <1>                0.0000
     28 O28         -7.4681  -1.1167   4.3111 O.co2          1 <1>                0.0000
     29 O29         -6.4049  -0.7927   6.6154 O.co2          1 <1>                0.0000
     30 O30          0.5224  -0.7550  -0.1266 O.3            1 <1>                0.0000
     31 H31          1.9938   5.1755  -4.3720 H              1 <1>                0.0000
     32 H32          0.4441   5.1593  -5.2474 H              1 <1>                0.0000
     33 H33          0.4610   5.1497  -3.4675 H              1 <1>                0.0000
     34 H34          0.9839   3.1140  -6.5051 H              1 <1>                0.0000
     35 H35          1.0178   0.6563  -6.4686 H              1 <1>                0.0000
     36 H36          1.0295   1.8306  -0.0515 H              1 <1>                0.0000
     37 H37          0.4875  -1.2893  -2.1473 H              1 <1>                0.0000
     38 H38          2.7881  -1.7401  -2.2299 H              1 <1>                0.0000
     39 H39          3.1962  -0.3282  -1.2048 H              1 <1>                0.0000
     40 H40          2.7642  -3.0911  -0.3576 H              1 <1>                0.0000
     41 H41          4.3057  -1.5216   0.6260 H              1 <1>                0.0000
     42 H42          0.4591  -2.8418   0.0014 H              1 <1>                0.0000
     43 H43          1.5199  -2.8639   2.3090 H              1 <1>                0.0000
     44 H44          1.4450  -1.0855   2.3015 H              1 <1>                0.0000
@<TRIPOS>BOND
    1    1    2 1     
    2    1   31 1     
    3    1   32 1     
    4    1   33 1     
    5    2   10 ar    
    6    2    3 ar    
    7    3    4 ar    
    8    3   34 1     
    9    4    5 ar    
   10    4   35 1     
   11    5    6 ar    
   12    6   10 ar    
   13    6    7 1     
   14    7    8 1     
   15    7   11 1     
   16    8    9 2     
   17    8   36 1     
   18    9   10 1     
   19   11   30 1     
   20   11   12 1     
   21   11   37 1     
   22   12   13 1     
   23   12   38 1     
   24   12   39 1     
   25   13   14 1     
   26   13   15 1     
   27   13   40 1     
   28   14   41 1     
   29   15   16 1     
   30   15   30 1     
   31   15   42 1     
   32   16   17 1     
   33   16   43 1     
   34   16   44 1     
   35   17   18 1     
   36   18   19 ar    
   37   18   20 ar    
   38   18   21 1     
   39   21   22 1     
   40   22   23 ar    
   41   22   24 ar    
   42   22   25 1     
   43   25   26 1     
   44   26   27 ar    
   45   26   28 ar    
   46   26   29 ar    
@<TRIPOS>SUBSTRUCTURE
      1 ****           1
@<TRIPOS>SET
DONOR_HYDROGENS      STATIC     ATOMS    <user>   **** ""
1 41
ATOM$RED        STATIC     ATOMS    COLORGROUP SYSTEM
1 41
