#       Name:                QUO
#       Creating user name   gbret
#       Creation time:       Fri Sep  9 15:14:24 2016


#       File generated by GOLD software.
#

@<TRIPOS>MOLECULE
QUO
    58    61     1
SMALL
NO_CHARGES


@<TRIPOS>ATOM
      1 N1           1.0417   5.5654  -0.8187 N.pl3          1 <1>                0.0000
      2 C2           1.0603   4.1931  -0.8264 C.2            1 <1>                0.0000
      3 N3          -0.0805   3.5423  -0.8243 N.2            1 <1>                0.0000
      4 C4          -0.1155   2.2016  -0.8315 C.2            1 <1>                0.0000
      5 N5          -1.1279   1.2873  -0.8310 N.pl3          1 <1>                0.0000
      6 C6          -0.6137   0.0151  -0.8402 C.2            1 <1>                0.0000
      7 C7           0.7285   0.0704  -0.8467 C.2            1 <1>                0.0000
      8 C8           1.6771  -1.1005  -0.8575 C.3            1 <1>                0.0000
      9 N9           2.1795  -1.3362   0.5026 N.4            1 <1>                0.0000
     10 H10          2.6642  -0.5138   0.8294 H              1 <1>                0.0000
     11 H11          1.4049  -1.5366   1.1174 H              1 <1>                0.0000
     12 C12          3.1042  -2.4776   0.4921 C.3            1 <1>                0.0000
     13 C13          4.3860  -2.1122  -0.2846 C.3            1 <1>                0.0000
     14 C14          5.3810  -1.6632   0.8143 C.3            1 <1>                0.0000
     15 C15          5.0740  -2.6426   1.9743 C.3            1 <1>                0.0000
     16 O16          5.4767  -2.0793   3.2243 O.3            1 <1>                0.0000
     17 C17          3.5417  -2.8149   1.9284 C.3            1 <1>                0.0000
     18 O18          2.9205  -1.9191   2.8523 O.3            1 <1>                0.0000
     19 C19          1.0906   1.4868  -0.8412 C.2            1 <1>                0.0000
     20 C20          2.3103   2.1984  -0.8437 C.2            1 <1>                0.0000
     21 O21          3.3779   1.6101  -0.8522 O.2            1 <1>                0.0000
     22 N22          2.2624   3.5499  -0.8413 N.am           1 <1>                0.0000
     23 H23          3.0856   4.0630  -0.8428 H              1 <1>                0.0000
     24 C24         -2.5556   1.6157  -0.8216 C.3            1 <1>                0.0000
     25 O25         -3.3325   0.4941  -1.2952 O.3            1 <1>                0.0000
     26 C26         -4.6679   0.7170  -0.7923 C.3            1 <1>                0.0000
     27 C27         -5.4547  -0.5951  -0.7703 C.3            1 <1>                0.0000
     28 O28         -5.6678  -1.0451  -2.1099 O.3            1 <1>                0.0000
     29 P29         -6.4638  -2.3991  -2.4638 P.3            1 <1>                0.0000
     30 O30         -7.9592  -2.2573  -2.0183 O.co2          1 <1>                0.0000
     31 O31         -6.4009  -2.6533  -4.0084 O.co2          1 <1>                0.0000
     32 O32         -5.8061  -3.6041  -1.7090 O.co2          1 <1>                0.0000
     33 C33         -4.4653   1.2466   0.6447 C.3            1 <1>                0.0000
     34 O34         -4.5409   0.1760   1.5882 O.3            1 <1>                0.0000
     35 C35         -3.0437   1.8514   0.6249 C.3            1 <1>                0.0000
     36 O36         -2.1979   1.1729   1.5556 O.3            1 <1>                0.0000
     37 H37          1.8750   6.0618  -0.8240 H              1 <1>                0.0000
     38 H38          0.1951   6.0389  -0.8122 H              1 <1>                0.0000
     39 H39         -1.1990  -0.8926  -0.8416 H              1 <1>                0.0000
     40 H40          1.1536  -1.9890  -1.2105 H              1 <1>                0.0000
     41 H41          2.5139  -0.8840  -1.5215 H              1 <1>                0.0000
     42 H42          2.6238  -3.3428   0.0353 H              1 <1>                0.0000
     43 H43          4.7714  -2.9825  -0.8157 H              1 <1>                0.0000
     44 H44          4.1911  -1.2954  -0.9796 H              1 <1>                0.0000
     45 H45          6.4101  -1.7781   0.4738 H              1 <1>                0.0000
     46 H46          5.1853  -0.6341   1.1155 H              1 <1>                0.0000
     47 H47          5.5724  -3.5978   1.8091 H              1 <1>                0.0000
     48 H48          6.4241  -1.8956   3.2859 H              1 <1>                0.0000
     49 H49          3.2743  -3.8440   2.1682 H              1 <1>                0.0000
     50 H50          3.1732  -2.0671   3.7739 H              1 <1>                0.0000
     51 H51         -2.7455   2.4968  -1.4345 H              1 <1>                0.0000
     52 H52         -5.1843   1.4581  -1.4023 H              1 <1>                0.0000
     53 H53         -4.8907  -1.3478  -0.2197 H              1 <1>                0.0000
     54 H54         -6.4167  -0.4338  -0.2839 H              1 <1>                0.0000
     55 H55         -5.2053   2.0124   0.8773 H              1 <1>                0.0000
     56 H56         -4.4206   0.4523   2.5071 H              1 <1>                0.0000
     57 H57         -3.0793   2.9180   0.8469 H              1 <1>                0.0000
     58 H58         -2.4925   1.2375   2.4744 H              1 <1>                0.0000
@<TRIPOS>BOND
    1    1    2 1     
    2    1   37 1     
    3    1   38 1     
    4    2   22 1     
    5    2    3 2     
    6    3    4 1     
    7    4   19 2     
    8    4    5 1     
    9    5    6 1     
   10    5   24 1     
   11    6    7 2     
   12    6   39 1     
   13    7    8 1     
   14    7   19 1     
   15    8    9 1     
   16    8   40 1     
   17    8   41 1     
   18    9   10 1     
   19    9   11 1     
   20    9   12 1     
   21   12   17 1     
   22   12   13 1     
   23   12   42 1     
   24   13   14 1     
   25   13   43 1     
   26   13   44 1     
   27   14   15 1     
   28   14   45 1     
   29   14   46 1     
   30   15   16 1     
   31   15   17 1     
   32   15   47 1     
   33   16   48 1     
   34   17   18 1     
   35   17   49 1     
   36   18   50 1     
   37   19   20 1     
   38   20   21 2     
   39   20   22 am    
   40   22   23 1     
   41   24   35 1     
   42   24   25 1     
   43   24   51 1     
   44   25   26 1     
   45   26   27 1     
   46   26   33 1     
   47   26   52 1     
   48   27   28 1     
   49   27   53 1     
   50   27   54 1     
   51   28   29 1     
   52   29   30 ar    
   53   29   31 ar    
   54   29   32 ar    
   55   33   34 1     
   56   33   35 1     
   57   33   55 1     
   58   34   56 1     
   59   35   36 1     
   60   35   57 1     
   61   36   58 1     
@<TRIPOS>SUBSTRUCTURE
      1 ****           1
@<TRIPOS>SET
DONOR_HYDROGENS      STATIC     ATOMS    <user>   **** ""
9 37 38 10 11 48 50 23 56 58
ATOM$RED        STATIC     ATOMS    COLORGROUP SYSTEM
9 37 38 10 11 48 50 23 56 58
