#       Name:                R23
#       Creating user name   gbret
#       Creation time:       Fri Sep  9 15:18:01 2016


#       File generated by GOLD software.
#

@<TRIPOS>MOLECULE
R23
    65    68     1
SMALL
NO_CHARGES


@<TRIPOS>ATOM
      1 C1           0.3047   5.1208  -3.0315 C.3            1 <1>                0.0000
      2 N2           0.3700   3.6573  -3.0364 N.am           1 <1>                0.0000
      3 C3           0.4383   2.9229  -1.7706 C.3            1 <1>                0.0000
      4 C4          -0.7677   1.9882  -1.6576 C.3            1 <1>                0.0000
      5 C5          -0.6964   1.2212  -0.3356 C.3            1 <1>                0.0000
      6 C6           0.5926   0.3981  -0.2925 C.3            1 <1>                0.0000
      7 C7           1.7986   1.3328  -0.4055 C.3            1 <1>                0.0000
      8 C8           1.7273   2.0998  -1.7274 C.3            1 <1>                0.0000
      9 C9           0.6628  -0.3574   1.0096 C.ar           1 <1>                0.0000
     10 C10          0.6599   0.3303   2.2087 C.ar           1 <1>                0.0000
     11 C11          0.7243  -0.3626   3.4031 C.ar           1 <1>                0.0000
     12 C12          0.7912  -1.7434   3.3983 C.ar           1 <1>                0.0000
     13 C13          0.8619  -2.4988   4.7004 C.3            1 <1>                0.0000
     14 N14         -0.4980  -2.8114   5.1597 N.4            1 <1>                0.0000
     15 H15         -1.0367  -1.9601   5.2166 H              1 <1>                0.0000
     16 C16         -1.1354  -3.7292   4.2080 C.3            1 <1>                0.0000
     17 C17         -2.5797  -3.9943   4.6384 C.3            1 <1>                0.0000
     18 C18         -2.5833  -4.6215   6.0354 C.3            1 <1>                0.0000
     19 C19         -1.8506  -3.6893   7.0047 C.3            1 <1>                0.0000
     20 C20         -0.4332  -3.4372   6.4858 C.3            1 <1>                0.0000
     21 C21          0.7927  -2.4312   2.1993 C.ar           1 <1>                0.0000
     22 C22          0.7244  -1.7384   1.0050 C.ar           1 <1>                0.0000
     23 C23          0.3673   2.9865  -4.2054 C.2            1 <1>                0.0000
     24 O24          0.4214   1.7726  -4.2094 O.2            1 <1>                0.0000
     25 O25          0.3045   3.6617  -5.3690 O.3            1 <1>                0.0000
     26 C26          0.4092   2.9328  -6.5118 C.ar           1 <1>                0.0000
     27 C27         -0.6763   2.2011  -6.9708 C.ar           1 <1>                0.0000
     28 C28         -0.5680   1.4611  -8.1322 C.ar           1 <1>                0.0000
     29 C29          0.6224   1.4491  -8.8375 C.ar           1 <1>                0.0000
     30 Cl30         0.7562   0.5179 -10.2965 Cl             1 <1>                0.0000
     31 C31          1.7061   2.1787  -8.3815 C.ar           1 <1>                0.0000
     32 C32          1.5998   2.9244  -7.2235 C.ar           1 <1>                0.0000
     33 H33          1.3147   5.5297  -3.0590 H              1 <1>                0.0000
     34 H34         -0.2496   5.4627  -3.9055 H              1 <1>                0.0000
     35 H35         -0.1997   5.4590  -2.1263 H              1 <1>                0.0000
     36 H36          0.4299   3.6288  -0.9401 H              1 <1>                0.0000
     37 H37         -1.6861   2.5746  -1.6883 H              1 <1>                0.0000
     38 H38         -0.7594   1.2823  -2.4881 H              1 <1>                0.0000
     39 H39         -0.7048   1.9271   0.4949 H              1 <1>                0.0000
     40 H40         -1.5556   0.5553  -0.2551 H              1 <1>                0.0000
     41 H41          0.6009  -0.3078  -1.1230 H              1 <1>                0.0000
     42 H42          1.7902   2.0387   0.4250 H              1 <1>                0.0000
     43 H43          2.7169   0.7464  -0.3747 H              1 <1>                0.0000
     44 H44          1.7356   1.3939  -2.5579 H              1 <1>                0.0000
     45 H45          2.5864   2.7657  -1.8079 H              1 <1>                0.0000
     46 H46          0.6076   1.4091   2.2124 H              1 <1>                0.0000
     47 H47          0.7227   0.1747   4.3399 H              1 <1>                0.0000
     48 H48          1.4176  -3.4249   4.5534 H              1 <1>                0.0000
     49 H49          1.3664  -1.8872   5.4484 H              1 <1>                0.0000
     50 H50         -1.1292  -3.2828   3.2136 H              1 <1>                0.0000
     51 H51         -0.5847  -4.6697   4.1865 H              1 <1>                0.0000
     52 H52         -3.1313  -3.0545   4.6599 H              1 <1>                0.0000
     53 H53         -3.0506  -4.6774   3.9315 H              1 <1>                0.0000
     54 H54         -3.6113  -4.7602   6.3700 H              1 <1>                0.0000
     55 H55         -2.0759  -5.5857   6.0034 H              1 <1>                0.0000
     56 H56         -2.3872  -2.7432   7.0753 H              1 <1>                0.0000
     57 H57         -1.8004  -4.1545   7.9892 H              1 <1>                0.0000
     58 H58          0.1016  -4.3844   6.4162 H              1 <1>                0.0000
     59 H59          0.0922  -2.7740   7.1730 H              1 <1>                0.0000
     60 H60          0.8446  -3.5099   2.1956 H              1 <1>                0.0000
     61 H61          0.7256  -2.2757   0.0682 H              1 <1>                0.0000
     62 H62         -1.6054   2.2097  -6.4202 H              1 <1>                0.0000
     63 H63         -1.4129   0.8914  -8.4898 H              1 <1>                0.0000
     64 H64          2.6343   2.1683  -8.9335 H              1 <1>                0.0000
     65 H65          2.4459   3.4938  -6.8679 H              1 <1>                0.0000
@<TRIPOS>BOND
    1    1    2 1     
    2    1   33 1     
    3    1   34 1     
    4    1   35 1     
    5    2    3 1     
    6    2   23 am    
    7    3    8 1     
    8    3    4 1     
    9    3   36 1     
   10    4    5 1     
   11    4   37 1     
   12    4   38 1     
   13    5    6 1     
   14    5   39 1     
   15    5   40 1     
   16    6    7 1     
   17    6    9 1     
   18    6   41 1     
   19    7    8 1     
   20    7   42 1     
   21    7   43 1     
   22    8   44 1     
   23    8   45 1     
   24    9   22 ar    
   25    9   10 ar    
   26   10   11 ar    
   27   10   46 1     
   28   11   12 ar    
   29   11   47 1     
   30   12   13 1     
   31   12   21 ar    
   32   13   14 1     
   33   13   48 1     
   34   13   49 1     
   35   14   15 1     
   36   14   20 1     
   37   14   16 1     
   38   16   17 1     
   39   16   50 1     
   40   16   51 1     
   41   17   18 1     
   42   17   52 1     
   43   17   53 1     
   44   18   19 1     
   45   18   54 1     
   46   18   55 1     
   47   19   20 1     
   48   19   56 1     
   49   19   57 1     
   50   20   58 1     
   51   20   59 1     
   52   21   22 ar    
   53   21   60 1     
   54   22   61 1     
   55   23   24 2     
   56   23   25 1     
   57   25   26 1     
   58   26   32 ar    
   59   26   27 ar    
   60   27   28 ar    
   61   27   62 1     
   62   28   29 ar    
   63   28   63 1     
   64   29   30 1     
   65   29   31 ar    
   66   31   32 ar    
   67   31   64 1     
   68   32   65 1     
@<TRIPOS>SUBSTRUCTURE
      1 ****           1
@<TRIPOS>SET
DONOR_HYDROGENS      STATIC     ATOMS    <user>   **** ""
1 15
ATOM$RED        STATIC     ATOMS    COLORGROUP SYSTEM
1 15
