#       Name:                R2T
#       Creating user name   gbret
#       Creation time:       Fri Sep  9 15:18:37 2016


#       File generated by GOLD software.
#

@<TRIPOS>MOLECULE
R2T
    22    21     1
SMALL
NO_CHARGES


@<TRIPOS>ATOM
      1 N1           2.2966   1.7747  -0.8530 N.am           1 <1>                0.0000
      2 C2           2.2673   0.4287  -0.7889 C.2            1 <1>                0.0000
      3 O3           3.3031  -0.1972  -0.7094 O.2            1 <1>                0.0000
      4 C4           0.9477  -0.2984  -0.8161 C.3            1 <1>                0.0000
      5 O5           1.1811  -1.7077  -0.8542 O.3            1 <1>                0.0000
      6 C6           0.1463   0.0521   0.4392 C.3            1 <1>                0.0000
      7 O7          -0.1929   1.4400   0.4157 O.3            1 <1>                0.0000
      8 C8          -1.1337  -0.7852   0.4774 C.3            1 <1>                0.0000
      9 N9          -1.8419  -0.5396   1.7409 N.4            1 <1>                0.0000
     10 H10         -2.0371   0.4462   1.8310 H              1 <1>                0.0000
     11 H11         -2.7088  -1.0560   1.7464 H              1 <1>                0.0000
     12 H12         -1.2663  -0.8405   2.5130 H              1 <1>                0.0000
     13 C13         -2.0205  -0.4001  -0.6786 C.2            1 <1>                0.0000
     14 O14         -1.9163  -0.9796  -1.7463 O.co2          1 <1>                0.0000
     15 O15         -2.8422   0.4908  -0.5462 O.co2          1 <1>                0.0000
     16 H16          3.1462   2.2425  -0.8394 H              1 <1>                0.0000
     17 H17          1.4682   2.2753  -0.9166 H              1 <1>                0.0000
     18 H18          0.3861   0.0009  -1.7010 H              1 <1>                0.0000
     19 H19          1.6770  -2.0449  -0.0957 H              1 <1>                0.0000
     20 H20          0.7460  -0.1605   1.3242 H              1 <1>                0.0000
     21 H21         -0.7277   1.7014  -0.3464 H              1 <1>                0.0000
     22 H22         -0.8788  -1.8424   0.4033 H              1 <1>                0.0000
@<TRIPOS>BOND
    1    1    2 am    
    2    1   16 1     
    3    1   17 1     
    4    2    3 2     
    5    2    4 1     
    6    4    5 1     
    7    4    6 1     
    8    4   18 1     
    9    5   19 1     
   10    6    7 1     
   11    6    8 1     
   12    6   20 1     
   13    7   21 1     
   14    8    9 1     
   15    8   13 1     
   16    8   22 1     
   17    9   10 1     
   18    9   11 1     
   19    9   12 1     
   20   13   14 ar    
   21   13   15 ar    
@<TRIPOS>SUBSTRUCTURE
      1 ****           1
@<TRIPOS>SET
DONOR_HYDROGENS      STATIC     ATOMS    <user>   **** ""
7 16 17 19 21 10 11 12
ATOM$RED        STATIC     ATOMS    COLORGROUP SYSTEM
7 16 17 19 21 10 11 12
