#       Name:                R36
#       Creating user name   gbret
#       Creation time:       Fri Sep  9 15:19:05 2016


#       File generated by GOLD software.
#

@<TRIPOS>MOLECULE
R36
    80    82     1
SMALL
NO_CHARGES


@<TRIPOS>ATOM
      1 C1           3.9080   4.7922  -0.2329 C.3            1 <1>                0.0000
      2 C2           3.9288   3.2623  -0.2413 C.3            1 <1>                0.0000
      3 C3           4.6688   2.7555   0.9982 C.3            1 <1>                0.0000
      4 C4           2.4934   2.7328  -0.2304 C.3            1 <1>                0.0000
      5 C5           2.5110   1.2087  -0.3645 C.3            1 <1>                0.0000
      6 C6           1.0861   0.6683  -0.2287 C.3            1 <1>                0.0000
      7 C7           1.1178  -0.8614  -0.2379 C.3            1 <1>                0.0000
      8 O8           1.8120  -1.3303   0.9198 O.3            1 <1>                0.0000
      9 C9          -0.3137  -1.4012  -0.2277 C.3            1 <1>                0.0000
     10 C10         -0.2828  -2.9264  -0.1111 C.3            1 <1>                0.0000
     11 C11         -1.6848  -3.4674  -0.2245 C.ar           1 <1>                0.0000
     12 C12         -2.4598  -3.6221   0.9097 C.ar           1 <1>                0.0000
     13 C13         -3.7458  -4.1184   0.8057 C.ar           1 <1>                0.0000
     14 C14         -4.2570  -4.4595  -0.4325 C.ar           1 <1>                0.0000
     15 C15         -3.4823  -4.3039  -1.5668 C.ar           1 <1>                0.0000
     16 C16         -2.1978  -3.8036  -1.4633 C.ar           1 <1>                0.0000
     17 N17         -1.0397  -0.8388   0.9137 N.am           1 <1>                0.0000
     18 C18         -2.3832  -0.7398   0.8754 C.2            1 <1>                0.0000
     19 O19         -2.9913  -1.1164  -0.1040 O.2            1 <1>                0.0000
     20 C20         -3.1300  -0.1613   2.0496 C.3            1 <1>                0.0000
     21 O21         -4.5314  -0.1628   1.7705 O.3            1 <1>                0.0000
     22 C22         -5.3531   0.3300   2.7343 C.ar           1 <1>                0.0000
     23 C23         -5.8630  -0.5134   3.7106 C.ar           1 <1>                0.0000
     24 C24         -5.5064  -1.9776   3.7035 C.3            1 <1>                0.0000
     25 C25         -6.6976  -0.0099   4.6895 C.ar           1 <1>                0.0000
     26 C26         -7.0252   1.3334   4.6965 C.ar           1 <1>                0.0000
     27 C27         -6.5186   2.1760   3.7243 C.ar           1 <1>                0.0000
     28 C28         -5.6787   1.6785   2.7468 C.ar           1 <1>                0.0000
     29 C29         -5.1269   2.5975   1.6875 C.3            1 <1>                0.0000
     30 N30          3.0502   0.8401  -1.6758 N.am           1 <1>                0.0000
     31 C31          4.3827   0.7419  -1.8532 C.2            1 <1>                0.0000
     32 O32          5.1370   0.9592  -0.9252 O.2            1 <1>                0.0000
     33 C33          4.9269   0.3698  -3.1767 C.ar           1 <1>                0.0000
     34 C34          4.0628   0.1254  -4.2458 C.ar           1 <1>                0.0000
     35 C35          4.5730  -0.2212  -5.4801 C.ar           1 <1>                0.0000
     36 C36          5.9390  -0.3282  -5.6634 C.ar           1 <1>                0.0000
     37 C37          6.8078  -0.0870  -4.6058 C.ar           1 <1>                0.0000
     38 N38          8.1875  -0.1964  -4.7961 N.pl3          1 <1>                0.0000
     39 C39          6.3051   0.2676  -3.3628 C.ar           1 <1>                0.0000
     40 H40          4.9306   5.1695  -0.2406 H              1 <1>                0.0000
     41 H41          3.3808   5.1532  -1.1159 H              1 <1>                0.0000
     42 H42          3.3978   5.1437   0.6639 H              1 <1>                0.0000
     43 H43          4.4390   2.9108  -1.1381 H              1 <1>                0.0000
     44 H44          4.1586   3.1070   1.8950 H              1 <1>                0.0000
     45 H45          4.6835   1.6656   0.9923 H              1 <1>                0.0000
     46 H46          5.6914   3.1328   0.9905 H              1 <1>                0.0000
     47 H47          2.0111   3.0094   0.7071 H              1 <1>                0.0000
     48 H48          1.9405   3.1645  -1.0647 H              1 <1>                0.0000
     49 H49          3.1376   0.7823   0.4189 H              1 <1>                0.0000
     50 H50          0.6530   1.0171   0.7088 H              1 <1>                0.0000
     51 H51          0.4815   1.0242  -1.0629 H              1 <1>                0.0000
     52 H52          1.6308  -1.2088  -1.1347 H              1 <1>                0.0000
     53 H53          1.4103  -1.0583   1.7564 H              1 <1>                0.0000
     54 H54         -0.8155  -1.1176  -1.1529 H              1 <1>                0.0000
     55 H55          0.3318  -3.3396  -0.9109 H              1 <1>                0.0000
     56 H56          0.1386  -3.2086   0.8537 H              1 <1>                0.0000
     57 H57         -2.0604  -3.3556   1.8771 H              1 <1>                0.0000
     58 H58         -4.3510  -4.2399   1.6919 H              1 <1>                0.0000
     59 H59         -5.2615  -4.8478  -0.5136 H              1 <1>                0.0000
     60 H60         -3.8816  -4.5707  -2.5342 H              1 <1>                0.0000
     61 H61         -1.5926  -3.6821  -2.3495 H              1 <1>                0.0000
     62 H62         -0.5533  -0.5376   1.6971 H              1 <1>                0.0000
     63 H63         -2.9355  -0.7642   2.9366 H              1 <1>                0.0000
     64 H64         -2.7955   0.8612   2.2248 H              1 <1>                0.0000
     65 H65         -4.6054  -2.1350   4.2965 H              1 <1>                0.0000
     66 H66         -6.3274  -2.5536   4.1303 H              1 <1>                0.0000
     67 H67         -5.3283  -2.3033   2.6787 H              1 <1>                0.0000
     68 H68         -7.0948  -0.6661   5.4498 H              1 <1>                0.0000
     69 H69         -7.6781   1.7250   5.4625 H              1 <1>                0.0000
     70 H70         -6.7763   3.2248   3.7317 H              1 <1>                0.0000
     71 H71         -4.1813   3.0188   2.0287 H              1 <1>                0.0000
     72 H72         -4.9635   2.0353   0.7681 H              1 <1>                0.0000
     73 H73         -5.8369   3.4029   1.4996 H              1 <1>                0.0000
     74 H74          2.4483   0.6667  -2.4164 H              1 <1>                0.0000
     75 H75          2.9949   0.2072  -4.1065 H              1 <1>                0.0000
     76 H76          3.9028  -0.4099  -6.3057 H              1 <1>                0.0000
     77 H77          6.3324  -0.6006  -6.6316 H              1 <1>                0.0000
     78 H78          8.5392  -0.4407  -5.6665 H              1 <1>                0.0000
     79 H79          8.7938  -0.0281  -4.0579 H              1 <1>                0.0000
     80 H80          6.9784   0.4555  -2.5396 H              1 <1>                0.0000
@<TRIPOS>BOND
    1    1    2 1     
    2    1   40 1     
    3    1   41 1     
    4    1   42 1     
    5    2    3 1     
    6    2    4 1     
    7    2   43 1     
    8    3   44 1     
    9    3   45 1     
   10    3   46 1     
   11    4    5 1     
   12    4   47 1     
   13    4   48 1     
   14    5    6 1     
   15    5   30 1     
   16    5   49 1     
   17    6    7 1     
   18    6   50 1     
   19    6   51 1     
   20    7    8 1     
   21    7    9 1     
   22    7   52 1     
   23    8   53 1     
   24    9   10 1     
   25    9   17 1     
   26    9   54 1     
   27   10   11 1     
   28   10   55 1     
   29   10   56 1     
   30   11   16 ar    
   31   11   12 ar    
   32   12   13 ar    
   33   12   57 1     
   34   13   14 ar    
   35   13   58 1     
   36   14   15 ar    
   37   14   59 1     
   38   15   16 ar    
   39   15   60 1     
   40   16   61 1     
   41   17   18 am    
   42   17   62 1     
   43   18   19 2     
   44   18   20 1     
   45   20   21 1     
   46   20   63 1     
   47   20   64 1     
   48   21   22 1     
   49   22   28 ar    
   50   22   23 ar    
   51   23   24 1     
   52   23   25 ar    
   53   24   65 1     
   54   24   66 1     
   55   24   67 1     
   56   25   26 ar    
   57   25   68 1     
   58   26   27 ar    
   59   26   69 1     
   60   27   28 ar    
   61   27   70 1     
   62   28   29 1     
   63   29   71 1     
   64   29   72 1     
   65   29   73 1     
   66   30   31 am    
   67   30   74 1     
   68   31   32 2     
   69   31   33 1     
   70   33   39 ar    
   71   33   34 ar    
   72   34   35 ar    
   73   34   75 1     
   74   35   36 ar    
   75   35   76 1     
   76   36   37 ar    
   77   36   77 1     
   78   37   38 1     
   79   37   39 ar    
   80   38   78 1     
   81   38   79 1     
   82   39   80 1     
@<TRIPOS>SUBSTRUCTURE
      1 ****           1
@<TRIPOS>SET
DONOR_HYDROGENS      STATIC     ATOMS    <user>   **** ""
5 53 62 74 78 79
ATOM$RED        STATIC     ATOMS    COLORGROUP SYSTEM
5 53 62 74 78 79
