#       Name:                R39
#       Creating user name   gbret
#       Creation time:       Fri Sep  9 15:19:15 2016


#       File generated by GOLD software.
#

@<TRIPOS>MOLECULE
R39
    71    74     1
SMALL
NO_CHARGES


@<TRIPOS>ATOM
      1 C1          -2.7372   7.8587  -3.6528 C.3            1 <1>                0.0000
      2 C2          -2.7254   6.3518  -3.6551 C.ar           1 <1>                0.0000
      3 C3          -2.7243   5.6637  -4.8546 C.ar           1 <1>                0.0000
      4 C4          -2.7135   4.2826  -4.8600 C.ar           1 <1>                0.0000
      5 C5          -2.7033   3.5851  -3.6595 C.ar           1 <1>                0.0000
      6 C6          -2.7041   4.2788  -2.4568 C.ar           1 <1>                0.0000
      7 C7          -2.7100   5.6600  -2.4579 C.ar           1 <1>                0.0000
      8 N8          -2.6928   2.1836  -3.6618 N.pl3          1 <1>                0.0000
      9 N9          -3.3346   1.3547  -4.5909 N.2            1 <1>                0.0000
     10 C10         -3.0975   0.1091  -4.2668 C.2            1 <1>                0.0000
     11 C11         -2.2972   0.0940  -3.1209 C.2            1 <1>                0.0000
     12 C12         -2.0525   1.3849  -2.7650 C.2            1 <1>                0.0000
     13 N13         -1.2930   1.8108  -1.6757 N.am           1 <1>                0.0000
     14 C14         -0.7201   0.9052  -0.8584 C.2            1 <1>                0.0000
     15 O15         -0.8654  -0.2833  -1.0708 O.2            1 <1>                0.0000
     16 N16          0.0139   1.3168   0.1944 N.am           1 <1>                0.0000
     17 C17          0.5286   0.3787   1.0994 C.ar           1 <1>                0.0000
     18 C18          0.9530  -0.8631   0.6462 C.ar           1 <1>                0.0000
     19 C19          1.4600  -1.7871   1.5385 C.ar           1 <1>                0.0000
     20 C20          1.5453  -1.4747   2.8874 C.ar           1 <1>                0.0000
     21 O21          2.0446  -2.3850   3.7655 O.3            1 <1>                0.0000
     22 C22          2.1034  -1.9964   5.1394 C.3            1 <1>                0.0000
     23 C23          2.6886  -3.1413   5.9686 C.3            1 <1>                0.0000
     24 N24          4.0836  -3.3715   5.5698 N.4            1 <1>                0.0000
     25 H25          4.1268  -3.5325   4.5747 H              1 <1>                0.0000
     26 C26          4.8916  -2.1925   5.9110 C.3            1 <1>                0.0000
     27 C27          6.3444  -2.4347   5.4943 C.3            1 <1>                0.0000
     28 O28          6.8317  -3.6116   6.1449 O.3            1 <1>                0.0000
     29 C29          6.0621  -4.7837   5.8623 C.3            1 <1>                0.0000
     30 C30          4.6087  -4.5461   6.2795 C.3            1 <1>                0.0000
     31 C31          1.1218  -0.2340   3.3407 C.ar           1 <1>                0.0000
     32 C32          0.6195   0.6928   2.4487 C.ar           1 <1>                0.0000
     33 C33         -3.6026  -1.1042  -5.0042 C.3            1 <1>                0.0000
     34 C34         -4.7426  -1.7455  -4.2104 C.3            1 <1>                0.0000
     35 C35         -4.1142  -0.6859  -6.3841 C.3            1 <1>                0.0000
     36 C36         -2.4638  -2.1129  -5.1667 C.3            1 <1>                0.0000
     37 H37         -1.7125   8.2301  -3.6608 H              1 <1>                0.0000
     38 H38         -3.2613   8.2194  -4.5378 H              1 <1>                0.0000
     39 H39         -3.2464   8.2167  -2.7579 H              1 <1>                0.0000
     40 H40         -2.7322   6.2068  -5.7881 H              1 <1>                0.0000
     41 H41         -2.7133   3.7457  -5.7971 H              1 <1>                0.0000
     42 H42         -2.6962   3.7390  -1.5214 H              1 <1>                0.0000
     43 H43         -2.7102   6.2002  -1.5227 H              1 <1>                0.0000
     44 H44         -1.9335  -0.7858  -2.6109 H              1 <1>                0.0000
     45 H45         -1.1771   2.7588  -1.5063 H              1 <1>                0.0000
     46 H46          0.1860   2.2623   0.3256 H              1 <1>                0.0000
     47 H47          0.8864  -1.1065  -0.4039 H              1 <1>                0.0000
     48 H48          1.7899  -2.7532   1.1862 H              1 <1>                0.0000
     49 H49          2.7355  -1.1143   5.2408 H              1 <1>                0.0000
     50 H50          1.0991  -1.7665   5.4953 H              1 <1>                0.0000
     51 H51          2.6514  -2.8800   7.0262 H              1 <1>                0.0000
     52 H52          2.1076  -4.0476   5.7977 H              1 <1>                0.0000
     53 H53          4.5029  -1.3207   5.3848 H              1 <1>                0.0000
     54 H54          4.8457  -2.0190   6.9861 H              1 <1>                0.0000
     55 H55          6.3957  -2.5684   4.4137 H              1 <1>                0.0000
     56 H56          6.9540  -1.5791   5.7852 H              1 <1>                0.0000
     57 H57          6.1038  -4.9978   4.7944 H              1 <1>                0.0000
     58 H58          6.4674  -5.6283   6.4197 H              1 <1>                0.0000
     59 H59          4.5628  -4.3717   7.3545 H              1 <1>                0.0000
     60 H60          4.0101  -5.4213   6.0270 H              1 <1>                0.0000
     61 H61          1.1887   0.0087   4.3910 H              1 <1>                0.0000
     62 H62          0.2901   1.6589   2.8017 H              1 <1>                0.0000
     63 H63         -5.5539  -1.0269  -4.0946 H              1 <1>                0.0000
     64 H64         -5.1079  -2.6231  -4.7438 H              1 <1>                0.0000
     65 H65         -4.3780  -2.0435  -3.2274 H              1 <1>                0.0000
     66 H66         -3.3021  -0.2290  -6.9496 H              1 <1>                0.0000
     67 H67         -4.4796  -1.5635  -6.9175 H              1 <1>                0.0000
     68 H68         -4.9256   0.0327  -6.2683 H              1 <1>                0.0000
     69 H69         -2.0993  -2.4109  -4.1837 H              1 <1>                0.0000
     70 H70         -2.8291  -2.9905  -5.7001 H              1 <1>                0.0000
     71 H71         -1.6516  -1.6560  -5.7322 H              1 <1>                0.0000
@<TRIPOS>BOND
    1    1    2 1     
    2    1   37 1     
    3    1   38 1     
    4    1   39 1     
    5    2    7 ar    
    6    2    3 ar    
    7    3    4 ar    
    8    3   40 1     
    9    4    5 ar    
   10    4   41 1     
   11    5    6 ar    
   12    5    8 1     
   13    6    7 ar    
   14    6   42 1     
   15    7   43 1     
   16    8   12 1     
   17    8    9 1     
   18    9   10 2     
   19   10   11 1     
   20   10   33 1     
   21   11   12 2     
   22   11   44 1     
   23   12   13 1     
   24   13   14 am    
   25   13   45 1     
   26   14   15 2     
   27   14   16 am    
   28   16   17 1     
   29   16   46 1     
   30   17   32 ar    
   31   17   18 ar    
   32   18   19 ar    
   33   18   47 1     
   34   19   20 ar    
   35   19   48 1     
   36   20   21 1     
   37   20   31 ar    
   38   21   22 1     
   39   22   23 1     
   40   22   49 1     
   41   22   50 1     
   42   23   24 1     
   43   23   51 1     
   44   23   52 1     
   45   24   25 1     
   46   24   30 1     
   47   24   26 1     
   48   26   27 1     
   49   26   53 1     
   50   26   54 1     
   51   27   28 1     
   52   27   55 1     
   53   27   56 1     
   54   28   29 1     
   55   29   30 1     
   56   29   57 1     
   57   29   58 1     
   58   30   59 1     
   59   30   60 1     
   60   31   32 ar    
   61   31   61 1     
   62   32   62 1     
   63   33   34 1     
   64   33   35 1     
   65   33   36 1     
   66   34   63 1     
   67   34   64 1     
   68   34   65 1     
   69   35   66 1     
   70   35   67 1     
   71   35   68 1     
   72   36   69 1     
   73   36   70 1     
   74   36   71 1     
@<TRIPOS>SUBSTRUCTURE
      1 ****           1
@<TRIPOS>SET
DONOR_HYDROGENS      STATIC     ATOMS    <user>   **** ""
3 45 46 25
ATOM$RED        STATIC     ATOMS    COLORGROUP SYSTEM
3 45 46 25
