#       Name:                R64
#       Creating user name   gbret
#       Creation time:       Fri Sep  9 15:21:28 2016


#       File generated by GOLD software.
#

@<TRIPOS>MOLECULE
R64
    55    58     1
SMALL
NO_CHARGES


@<TRIPOS>ATOM
      1 C1          -0.0449   0.0766  -2.5458 C.3            1 <1>                0.0000
      2 C2          -0.0244  -1.4303  -2.5541 C.2            1 <1>                0.0000
      3 C3          -0.0179  -2.2347  -3.6516 C.2            1 <1>                0.0000
      4 O4           0.0017  -3.5279  -3.2604 O.3            1 <1>                0.0000
      5 C5           0.0084  -3.5979  -1.9134 C.ar           1 <1>                0.0000
      6 C6           0.0274  -4.6606  -1.0192 C.ar           1 <1>                0.0000
      7 C7           0.0297  -4.4223   0.3392 C.ar           1 <1>                0.0000
      8 C8           0.0137  -3.1263   0.8321 C.ar           1 <1>                0.0000
      9 C9          -0.0048  -2.0509  -0.0357 C.ar           1 <1>                0.0000
     10 O10         -0.0204  -0.7826   0.4477 O.3            1 <1>                0.0000
     11 C11         -0.0166  -0.6297   1.8685 C.3            1 <1>                0.0000
     12 C12         -0.0359   0.8589   2.2214 C.3            1 <1>                0.0000
     13 C13         -0.0318   1.0225   3.7426 C.3            1 <1>                0.0000
     14 N14         -0.0502   2.4518   4.0814 N.4            1 <1>                0.0000
     15 H15          0.7658   2.9002   3.6927 H              1 <1>                0.0000
     16 H16         -0.8817   2.8773   3.6996 H              1 <1>                0.0000
     17 C17         -0.0463   2.6089   5.5420 C.3            1 <1>                0.0000
     18 C18         -0.0653   4.0752   5.8895 C.ar           1 <1>                0.0000
     19 C19          1.1216   4.7763   6.0409 C.ar           1 <1>                0.0000
     20 C20          1.0559   6.1235   6.3609 C.ar           1 <1>                0.0000
     21 C21         -0.1817   6.7190   6.5173 C.ar           1 <1>                0.0000
     22 N22         -1.2900   6.0209   6.3661 N.ar           1 <1>                0.0000
     23 C23         -1.2656   4.7393   6.0558 C.ar           1 <1>                0.0000
     24 C24         -0.0021  -2.2797  -1.4213 C.ar           1 <1>                0.0000
     25 C25         -0.0302  -1.7704  -5.0425 C.2            1 <1>                0.0000
     26 O26         -0.0478  -0.5772  -5.2861 O.2            1 <1>                0.0000
     27 C27         -0.0213  -2.7473  -6.1454 C.2            1 <1>                0.0000
     28 N28         -0.0083  -4.0576  -6.0149 N.2            1 <1>                0.0000
     29 C29         -0.0041  -4.6181  -7.2221 C.2            1 <1>                0.0000
     30 C30         -0.0147  -3.6311  -8.1520 C.2            1 <1>                0.0000
     31 N31         -0.0311  -2.4489  -7.4793 N.pl3          1 <1>                0.0000
     32 C32         -0.0470  -1.1093  -8.0722 C.3            1 <1>                0.0000
     33 H33          0.9777   0.4539  -2.5535 H              1 <1>                0.0000
     34 H34         -0.5720   0.4377  -3.4289 H              1 <1>                0.0000
     35 H35         -0.5551   0.4281  -1.6490 H              1 <1>                0.0000
     36 H36          0.0400  -5.6754  -1.3884 H              1 <1>                0.0000
     37 H37          0.0438  -5.2548   1.0271 H              1 <1>                0.0000
     38 H38          0.0154  -2.9566   1.8986 H              1 <1>                0.0000
     39 H39         -0.8982  -1.1141   2.2884 H              1 <1>                0.0000
     40 H40          0.8815  -1.0893   2.2810 H              1 <1>                0.0000
     41 H41          0.8457   1.3432   1.8015 H              1 <1>                0.0000
     42 H42         -0.9340   1.3185   1.8089 H              1 <1>                0.0000
     43 H43         -0.9134   0.5382   4.1625 H              1 <1>                0.0000
     44 H44          0.8664   0.5629   4.1551 H              1 <1>                0.0000
     45 H45         -0.9279   2.1246   5.9618 H              1 <1>                0.0000
     46 H46          0.8518   2.1493   5.9544 H              1 <1>                0.0000
     47 H47          2.0744   4.2843   5.9128 H              1 <1>                0.0000
     48 H48          1.9601   6.7004   6.4867 H              1 <1>                0.0000
     49 H49         -0.2415   7.7682   6.7666 H              1 <1>                0.0000
     50 H50         -2.1943   4.2004   5.9399 H              1 <1>                0.0000
     51 H51          0.0064  -5.6786  -7.4263 H              1 <1>                0.0000
     52 H52         -0.0141  -3.7595  -9.2243 H              1 <1>                0.0000
     53 H53         -1.0785  -0.7903  -8.2218 H              1 <1>                0.0000
     54 H54          0.4563  -0.4103  -7.4042 H              1 <1>                0.0000
     55 H55          0.4695  -1.1306  -9.0319 H              1 <1>                0.0000
@<TRIPOS>BOND
    1    1    2 1     
    2    1   33 1     
    3    1   34 1     
    4    1   35 1     
    5    2   24 1     
    6    2    3 2     
    7    3    4 1     
    8    3   25 1     
    9    4    5 1     
   10    5   24 ar    
   11    5    6 ar    
   12    6    7 ar    
   13    6   36 1     
   14    7    8 ar    
   15    7   37 1     
   16    8    9 ar    
   17    8   38 1     
   18    9   10 1     
   19    9   24 ar    
   20   10   11 1     
   21   11   12 1     
   22   11   39 1     
   23   11   40 1     
   24   12   13 1     
   25   12   41 1     
   26   12   42 1     
   27   13   14 1     
   28   13   43 1     
   29   13   44 1     
   30   14   15 1     
   31   14   16 1     
   32   14   17 1     
   33   17   18 1     
   34   17   45 1     
   35   17   46 1     
   36   18   23 ar    
   37   18   19 ar    
   38   19   20 ar    
   39   19   47 1     
   40   20   21 ar    
   41   20   48 1     
   42   21   22 ar    
   43   21   49 1     
   44   22   23 ar    
   45   23   50 1     
   46   25   26 2     
   47   25   27 1     
   48   27   31 1     
   49   27   28 2     
   50   28   29 1     
   51   29   30 2     
   52   29   51 1     
   53   30   31 1     
   54   30   52 1     
   55   31   32 1     
   56   32   53 1     
   57   32   54 1     
   58   32   55 1     
@<TRIPOS>SUBSTRUCTURE
      1 ****           1
@<TRIPOS>SET
DONOR_HYDROGENS      STATIC     ATOMS    <user>   **** ""
2 15 16
ATOM$RED        STATIC     ATOMS    COLORGROUP SYSTEM
2 15 16
