#       Name:                R68
#       Creating user name   gbret
#       Creation time:       Fri Sep  9 15:21:32 2016


#       File generated by GOLD software.
#

@<TRIPOS>MOLECULE
R68
    83    87     1
SMALL
NO_CHARGES


@<TRIPOS>ATOM
      1 C1           6.4773  -0.4981  -4.8727 C.3            1 <1>                0.0000
      2 C2           6.3821  -0.7577  -3.3679 C.3            1 <1>                0.0000
      3 C3           5.5440  -2.0131  -3.1181 C.3            1 <1>                0.0000
      4 C4           7.7876  -0.9574  -2.7935 C.3            1 <1>                0.0000
      5 C5           8.5925   0.3320  -2.9798 C.3            1 <1>                0.0000
      6 C6           7.8513   1.4908  -2.3094 C.3            1 <1>                0.0000
      7 N7           6.5258   1.6471  -2.9202 N.4            1 <1>                0.0000
      8 H8           6.0610   2.4449  -2.5131 H              1 <1>                0.0000
      9 H9           6.6290   1.7901  -3.9136 H              1 <1>                0.0000
     10 C10          5.7228   0.4414  -2.6832 C.3            1 <1>                0.0000
     11 C11          4.3390   0.6417  -3.2452 C.ar           1 <1>                0.0000
     12 C12          4.1388   1.5388  -4.2808 C.ar           1 <1>                0.0000
     13 C13          2.8754   1.7326  -4.8052 C.ar           1 <1>                0.0000
     14 C14          1.7950   1.0282  -4.2977 C.ar           1 <1>                0.0000
     15 O15          0.5549   1.2185  -4.8133 O.3            1 <1>                0.0000
     16 C16          1.9898   0.1167  -3.2483 C.ar           1 <1>                0.0000
     17 C17          0.8502  -0.6375  -2.7005 C.2            1 <1>                0.0000
     18 O18          0.5320  -1.7020  -3.1944 O.2            1 <1>                0.0000
     19 C19          0.0921  -0.1001  -1.5487 C.ar           1 <1>                0.0000
     20 C20          0.3832   1.1727  -1.0539 C.ar           1 <1>                0.0000
     21 C21         -0.3228   1.6728   0.0185 C.ar           1 <1>                0.0000
     22 C22         -1.3285   0.9071   0.6104 C.ar           1 <1>                0.0000
     23 C23         -1.6196  -0.3653   0.1159 C.ar           1 <1>                0.0000
     24 C24         -0.9182  -0.8634  -0.9604 C.ar           1 <1>                0.0000
     25 C25         -2.0860   1.4442   1.7631 C.2            1 <1>                0.0000
     26 O26         -1.8323   2.5519   2.1940 O.2            1 <1>                0.0000
     27 N27         -3.0572   0.7049   2.3347 N.am           1 <1>                0.0000
     28 C28         -3.8069   1.2366   3.4755 C.3            1 <1>                0.0000
     29 C29         -4.8840   2.1551   2.9604 C.3            1 <1>                0.0000
     30 C30         -5.1249   3.2853   3.9902 C.3            1 <1>                0.0000
     31 C31         -5.8764   2.7955   5.1421 C.3            1 <1>                0.0000
     32 N32         -5.1809   1.7394   5.8980 N.4            1 <1>                0.0000
     33 H33         -4.1856   1.9043   5.8798 H              1 <1>                0.0000
     34 H34         -5.5085   1.7294   6.8523 H              1 <1>                0.0000
     35 C35         -5.4800   0.4764   5.2627 C.3            1 <1>                0.0000
     36 C36         -4.3560   0.0559   4.3001 C.3            1 <1>                0.0000
     37 N37         -4.8750  -0.9613   3.3824 N.am           1 <1>                0.0000
     38 C38         -4.8812  -2.2585   3.7480 C.2            1 <1>                0.0000
     39 O39         -4.4564  -2.5844   4.8388 O.2            1 <1>                0.0000
     40 C40         -5.4060  -3.2872   2.8199 C.ar           1 <1>                0.0000
     41 C41         -5.8941  -2.9345   1.5581 C.ar           1 <1>                0.0000
     42 C42         -6.3738  -3.9261   0.7243 C.ar           1 <1>                0.0000
     43 N43         -6.3754  -5.1881   1.1047 N.ar           1 <1>                0.0000
     44 C44         -5.9247  -5.5634   2.2852 C.ar           1 <1>                0.0000
     45 C45         -5.4217  -4.6383   3.1793 C.ar           1 <1>                0.0000
     46 C46          3.2772  -0.0742  -2.7290 C.ar           1 <1>                0.0000
     47 F47          3.4772  -0.9488  -1.7189 F              1 <1>                0.0000
     48 H48          7.0759   0.3955  -5.0501 H              1 <1>                0.0000
     49 H49          6.9470  -1.3526  -5.3599 H              1 <1>                0.0000
     50 H50          5.4770  -0.3521  -5.2802 H              1 <1>                0.0000
     51 H51          6.0149  -2.8672  -3.6048 H              1 <1>                0.0000
     52 H52          5.4765  -2.1975  -2.0459 H              1 <1>                0.0000
     53 H53          4.5434  -1.8690  -3.5256 H              1 <1>                0.0000
     54 H54          7.7173  -1.1930  -1.7316 H              1 <1>                0.0000
     55 H55          8.2827  -1.7750  -3.3174 H              1 <1>                0.0000
     56 H56          9.5757   0.2164  -2.5237 H              1 <1>                0.0000
     57 H57          8.7062   0.5396  -4.0438 H              1 <1>                0.0000
     58 H58          7.7384   1.2823  -1.2455 H              1 <1>                0.0000
     59 H59          8.4217   2.4104  -2.4400 H              1 <1>                0.0000
     60 H60          5.6553   0.2553  -1.6113 H              1 <1>                0.0000
     61 H61          4.9761   2.0911  -4.6812 H              1 <1>                0.0000
     62 H62          2.7293   2.4350  -5.6125 H              1 <1>                0.0000
     63 H63          0.3684   0.6835  -5.5969 H              1 <1>                0.0000
     64 H64          1.1618   1.7649  -1.5114 H              1 <1>                0.0000
     65 H65         -0.0976   2.6573   0.4013 H              1 <1>                0.0000
     66 H66         -2.3976  -0.9577   0.5743 H              1 <1>                0.0000
     67 H67         -1.1437  -1.8477  -1.3432 H              1 <1>                0.0000
     68 H68         -3.2597  -0.1791   1.9908 H              1 <1>                0.0000
     69 H69         -3.1269   1.8142   4.1016 H              1 <1>                0.0000
     70 H70         -4.5695   2.5885   2.0110 H              1 <1>                0.0000
     71 H71         -5.8055   1.5910   2.8166 H              1 <1>                0.0000
     72 H72         -4.1635   3.6717   4.3285 H              1 <1>                0.0000
     73 H73         -5.6849   4.0899   3.5137 H              1 <1>                0.0000
     74 H74         -6.0713   3.6327   5.8123 H              1 <1>                0.0000
     75 H75         -6.8315   2.4028   4.7933 H              1 <1>                0.0000
     76 H76         -5.5989  -0.2894   6.0291 H              1 <1>                0.0000
     77 H77         -6.4117   0.5693   4.7047 H              1 <1>                0.0000
     78 H78         -3.5409  -0.3784   4.8791 H              1 <1>                0.0000
     79 H79         -5.2141  -0.7012   2.5117 H              1 <1>                0.0000
     80 H80         -5.8964  -1.9023   1.2401 H              1 <1>                0.0000
     81 H81         -6.7528  -3.6636  -0.2523 H              1 <1>                0.0000
     82 H82         -5.9455  -6.6088   2.5555 H              1 <1>                0.0000
     83 H83         -5.0537  -4.9529   4.1447 H              1 <1>                0.0000
@<TRIPOS>BOND
    1    1    2 1     
    2    1   48 1     
    3    1   49 1     
    4    1   50 1     
    5    2   10 1     
    6    2    3 1     
    7    2    4 1     
    8    3   51 1     
    9    3   52 1     
   10    3   53 1     
   11    4    5 1     
   12    4   54 1     
   13    4   55 1     
   14    5    6 1     
   15    5   56 1     
   16    5   57 1     
   17    6    7 1     
   18    6   58 1     
   19    6   59 1     
   20    7    8 1     
   21    7    9 1     
   22    7   10 1     
   23   10   11 1     
   24   10   60 1     
   25   11   46 ar    
   26   11   12 ar    
   27   12   13 ar    
   28   12   61 1     
   29   13   14 ar    
   30   13   62 1     
   31   14   15 1     
   32   14   16 ar    
   33   15   63 1     
   34   16   17 1     
   35   16   46 ar    
   36   17   18 2     
   37   17   19 1     
   38   19   24 ar    
   39   19   20 ar    
   40   20   21 ar    
   41   20   64 1     
   42   21   22 ar    
   43   21   65 1     
   44   22   23 ar    
   45   22   25 1     
   46   23   24 ar    
   47   23   66 1     
   48   24   67 1     
   49   25   26 2     
   50   25   27 am    
   51   27   28 1     
   52   27   68 1     
   53   28   36 1     
   54   28   29 1     
   55   28   69 1     
   56   29   30 1     
   57   29   70 1     
   58   29   71 1     
   59   30   31 1     
   60   30   72 1     
   61   30   73 1     
   62   31   32 1     
   63   31   74 1     
   64   31   75 1     
   65   32   33 1     
   66   32   34 1     
   67   32   35 1     
   68   35   36 1     
   69   35   76 1     
   70   35   77 1     
   71   36   37 1     
   72   36   78 1     
   73   37   38 am    
   74   37   79 1     
   75   38   39 2     
   76   38   40 1     
   77   40   45 ar    
   78   40   41 ar    
   79   41   42 ar    
   80   41   80 1     
   81   42   43 ar    
   82   42   81 1     
   83   43   44 ar    
   84   44   45 ar    
   85   44   82 1     
   86   45   83 1     
   87   46   47 1     
@<TRIPOS>SUBSTRUCTURE
      1 ****           1
@<TRIPOS>SET
DONOR_HYDROGENS      STATIC     ATOMS    <user>   **** ""
7 8 9 63 68 33 34 79
ATOM$RED        STATIC     ATOMS    COLORGROUP SYSTEM
7 8 9 63 68 33 34 79
