#       Name:                RAL
#       Creating user name   gbret
#       Creation time:       Fri Sep  9 15:24:07 2016


#       File generated by GOLD software.
#

@<TRIPOS>MOLECULE
RAL
    62    66     1
SMALL
NO_CHARGES


@<TRIPOS>ATOM
      1 O1           6.9012  -1.9125  -0.7356 O.3            1 <1>                0.0000
      2 C2           5.6775  -2.3320  -1.1485 C.ar           1 <1>                0.0000
      3 C3           4.9437  -3.2099  -0.3600 C.ar           1 <1>                0.0000
      4 C4           3.7021  -3.6381  -0.7748 C.ar           1 <1>                0.0000
      5 C5           3.1801  -3.1878  -1.9910 C.ar           1 <1>                0.0000
      6 C6           3.9217  -2.3043  -2.7809 C.ar           1 <1>                0.0000
      7 C7           5.1605  -1.8777  -2.3557 C.ar           1 <1>                0.0000
      8 C8           1.8518  -3.6437  -2.4396 C.2            1 <1>                0.0000
      9 S9           1.4970  -4.2392  -4.0486 S.3            1 <1>                0.0000
     10 C10         -0.1964  -4.5163  -3.6621 C.ar           1 <1>                0.0000
     11 C11         -1.2276  -5.0156  -4.4651 C.ar           1 <1>                0.0000
     12 C12         -2.5026  -5.1553  -3.9575 C.ar           1 <1>                0.0000
     13 O13         -3.4981  -5.6414  -4.7453 O.3            1 <1>                0.0000
     14 C14         -2.7701  -4.7991  -2.6388 C.ar           1 <1>                0.0000
     15 C15         -1.7696  -4.3081  -1.8395 C.ar           1 <1>                0.0000
     16 C16         -0.4607  -4.1587  -2.3415 C.ar           1 <1>                0.0000
     17 C17          0.7326  -3.6639  -1.6536 C.2            1 <1>                0.0000
     18 C18          0.7279  -3.2280  -0.2573 C.2            1 <1>                0.0000
     19 O19          0.8610  -4.0451   0.6363 O.2            1 <1>                0.0000
     20 C20          0.5617  -1.7971   0.0691 C.ar           1 <1>                0.0000
     21 C21          0.2916  -0.8742  -0.9446 C.ar           1 <1>                0.0000
     22 C22          0.1369   0.4590  -0.6361 C.ar           1 <1>                0.0000
     23 C23          0.2491   0.8869   0.6815 C.ar           1 <1>                0.0000
     24 O24          0.0955   2.2017   0.9816 O.3            1 <1>                0.0000
     25 C25          0.2234   2.5728   2.3556 C.3            1 <1>                0.0000
     26 C26          0.0201   4.0826   2.4972 C.3            1 <1>                0.0000
     27 N27         -1.3594   4.4276   2.1283 N.4            1 <1>                0.0000
     28 H28         -1.5557   4.0798   1.2017 H              1 <1>                0.0000
     29 C29         -2.2880   3.8154   3.0860 C.3            1 <1>                0.0000
     30 C30         -3.7293   4.1040   2.6605 C.3            1 <1>                0.0000
     31 C31         -3.9525   5.6187   2.6276 C.3            1 <1>                0.0000
     32 C32         -2.9297   6.2550   1.6820 C.3            1 <1>                0.0000
     33 C33         -1.5185   5.8867   2.1455 C.3            1 <1>                0.0000
     34 C34          0.5176  -0.0280   1.6928 C.ar           1 <1>                0.0000
     35 C35          0.6684  -1.3637   1.3932 C.ar           1 <1>                0.0000
     36 H36          6.8808  -1.1085  -0.1986 H              1 <1>                0.0000
     37 H37          5.3478  -3.5572   0.5795 H              1 <1>                0.0000
     38 H38          3.1328  -4.3210  -0.1616 H              1 <1>                0.0000
     39 H39          3.5224  -1.9539  -3.7212 H              1 <1>                0.0000
     40 H40          5.7340  -1.1949  -2.9650 H              1 <1>                0.0000
     41 H41         -1.0241  -5.2932  -5.4888 H              1 <1>                0.0000
     42 H42         -3.5921  -6.6032  -4.7117 H              1 <1>                0.0000
     43 H43         -3.7692  -4.9093  -2.2437 H              1 <1>                0.0000
     44 H44         -1.9861  -4.0338  -0.8175 H              1 <1>                0.0000
     45 H45          0.2047  -1.2058  -1.9688 H              1 <1>                0.0000
     46 H46         -0.0715   1.1731  -1.4192 H              1 <1>                0.0000
     47 H47         -0.5283   2.0481   2.9452 H              1 <1>                0.0000
     48 H48          1.2177   2.3050   2.7132 H              1 <1>                0.0000
     49 H49          0.2050   4.3789   3.5297 H              1 <1>                0.0000
     50 H50          0.7138   4.6060   1.8392 H              1 <1>                0.0000
     51 H51         -2.1258   2.7378   3.1107 H              1 <1>                0.0000
     52 H52         -2.1125   4.2311   4.0782 H              1 <1>                0.0000
     53 H53         -3.9060   3.6884   1.6685 H              1 <1>                0.0000
     54 H54         -4.4172   3.6501   3.3738 H              1 <1>                0.0000
     55 H55         -4.9603   5.8309   2.2707 H              1 <1>                0.0000
     56 H56         -3.8259   6.0276   3.6300 H              1 <1>                0.0000
     57 H57         -3.0898   5.8841   0.6697 H              1 <1>                0.0000
     58 H58         -3.0461   7.3387   1.6960 H              1 <1>                0.0000
     59 H59         -1.3604   6.2587   3.1578 H              1 <1>                0.0000
     60 H60         -0.7870   6.3379   1.4752 H              1 <1>                0.0000
     61 H61          0.6044   0.3084   2.7154 H              1 <1>                0.0000
     62 H62          0.8768  -2.0740   2.1796 H              1 <1>                0.0000
@<TRIPOS>BOND
    1    1    2 1     
    2    1   36 1     
    3    2    7 ar    
    4    2    3 ar    
    5    3    4 ar    
    6    3   37 1     
    7    4    5 ar    
    8    4   38 1     
    9    5    6 ar    
   10    5    8 1     
   11    6    7 ar    
   12    6   39 1     
   13    7   40 1     
   14    8   17 2     
   15    8    9 1     
   16    9   10 1     
   17   10   16 ar    
   18   10   11 ar    
   19   11   12 ar    
   20   11   41 1     
   21   12   13 1     
   22   12   14 ar    
   23   13   42 1     
   24   14   15 ar    
   25   14   43 1     
   26   15   16 ar    
   27   15   44 1     
   28   16   17 1     
   29   17   18 1     
   30   18   19 2     
   31   18   20 1     
   32   20   35 ar    
   33   20   21 ar    
   34   21   22 ar    
   35   21   45 1     
   36   22   23 ar    
   37   22   46 1     
   38   23   24 1     
   39   23   34 ar    
   40   24   25 1     
   41   25   26 1     
   42   25   47 1     
   43   25   48 1     
   44   26   27 1     
   45   26   49 1     
   46   26   50 1     
   47   27   28 1     
   48   27   33 1     
   49   27   29 1     
   50   29   30 1     
   51   29   51 1     
   52   29   52 1     
   53   30   31 1     
   54   30   53 1     
   55   30   54 1     
   56   31   32 1     
   57   31   55 1     
   58   31   56 1     
   59   32   33 1     
   60   32   57 1     
   61   32   58 1     
   62   33   59 1     
   63   33   60 1     
   64   34   35 ar    
   65   34   61 1     
   66   35   62 1     
@<TRIPOS>SUBSTRUCTURE
      1 ****           1
@<TRIPOS>SET
DONOR_HYDROGENS      STATIC     ATOMS    <user>   **** ""
3 36 42 28
ATOM$RED        STATIC     ATOMS    COLORGROUP SYSTEM
3 36 42 28
