#       Name:                RBS
#       Creating user name   gbret
#       Creation time:       Fri Sep  9 15:25:59 2016


#       File generated by GOLD software.
#

@<TRIPOS>MOLECULE
RBS
    36    38     1
SMALL
NO_CHARGES


@<TRIPOS>ATOM
      1 C1          -2.9432   6.2245  -0.3356 C.2            1 <1>                0.0000
      2 C2          -2.7605   5.0352   0.2314 C.2            1 <1>                0.0000
      3 C3          -1.4917   4.3167   0.0404 C.2            1 <1>                0.0000
      4 O4          -0.6093   4.8099  -0.6359 O.2            1 <1>                0.0000
      5 N5          -1.3066   3.1116   0.6149 N.am           1 <1>                0.0000
      6 C6          -0.1410   2.3838   0.3536 C.ar           1 <1>                0.0000
      7 C7           1.0750   3.0561   0.1963 C.ar           1 <1>                0.0000
      8 C8           2.2250   2.3731  -0.0587 C.ar           1 <1>                0.0000
      9 C9           2.1969   0.9757  -0.1663 C.ar           1 <1>                0.0000
     10 N10          3.3058   0.2625  -0.4161 N.ar           1 <1>                0.0000
     11 C11          3.2493  -1.0443  -0.5112 C.ar           1 <1>                0.0000
     12 N12          2.1251  -1.7292  -0.3713 N.ar           1 <1>                0.0000
     13 C13          0.9720  -1.1236  -0.1225 C.ar           1 <1>                0.0000
     14 N14         -0.1931  -1.8491   0.0216 N.pl3          1 <1>                0.0000
     15 C15         -0.1516  -3.2463   0.0153 C.ar           1 <1>                0.0000
     16 C16          0.9524  -3.9123   0.5322 C.ar           1 <1>                0.0000
     17 C17          0.9899  -5.2928   0.5249 C.ar           1 <1>                0.0000
     18 C18         -0.0700  -6.0120   0.0037 C.ar           1 <1>                0.0000
     19 C19         -1.1704  -5.3522  -0.5121 C.ar           1 <1>                0.0000
     20 C20         -1.2169  -3.9720  -0.5027 C.ar           1 <1>                0.0000
     21 C21          0.9687   0.2885  -0.0081 C.ar           1 <1>                0.0000
     22 C22         -0.2004   1.0083   0.2589 C.ar           1 <1>                0.0000
     23 H23         -2.1597   6.6625  -0.9362 H              1 <1>                0.0000
     24 H24         -3.8767   6.7502  -0.1990 H              1 <1>                0.0000
     25 H25         -3.5441   4.5972   0.8320 H              1 <1>                0.0000
     26 H26         -1.9817   2.7490   1.2096 H              1 <1>                0.0000
     27 H27          1.1024   4.1326   0.2779 H              1 <1>                0.0000
     28 H28          3.1564   2.9067  -0.1780 H              1 <1>                0.0000
     29 H29          4.1614  -1.5864  -0.7130 H              1 <1>                0.0000
     30 H30         -1.0407  -1.3895   0.1273 H              1 <1>                0.0000
     31 H31          1.7806  -3.3511   0.9391 H              1 <1>                0.0000
     32 H32          1.8481  -5.8112   0.9263 H              1 <1>                0.0000
     33 H33         -0.0381  -7.0916  -0.0008 H              1 <1>                0.0000
     34 H34         -1.9961  -5.9169  -0.9191 H              1 <1>                0.0000
     35 H35         -2.0767  -3.4572  -0.9053 H              1 <1>                0.0000
     36 H36         -1.1411   0.4931   0.3856 H              1 <1>                0.0000
@<TRIPOS>BOND
    1    1    2 2     
    2    1   23 1     
    3    1   24 1     
    4    2    3 1     
    5    2   25 1     
    6    3    4 2     
    7    3    5 am    
    8    5    6 1     
    9    5   26 1     
   10    6   22 ar    
   11    6    7 ar    
   12    7    8 ar    
   13    7   27 1     
   14    8    9 ar    
   15    8   28 1     
   16    9   21 ar    
   17    9   10 ar    
   18   10   11 ar    
   19   11   12 ar    
   20   11   29 1     
   21   12   13 ar    
   22   13   14 1     
   23   13   21 ar    
   24   14   15 1     
   25   14   30 1     
   26   15   20 ar    
   27   15   16 ar    
   28   16   17 ar    
   29   16   31 1     
   30   17   18 ar    
   31   17   32 1     
   32   18   19 ar    
   33   18   33 1     
   34   19   20 ar    
   35   19   34 1     
   36   20   35 1     
   37   21   22 ar    
   38   22   36 1     
@<TRIPOS>SUBSTRUCTURE
      1 ****           1
@<TRIPOS>SET
DONOR_HYDROGENS      STATIC     ATOMS    <user>   **** ""
2 26 30
ATOM$RED        STATIC     ATOMS    COLORGROUP SYSTEM
2 26 30
