#	Name:			RDS
#	Creating user name:	drognan
#	Creation time:		Wed Sep  5 12:09:46 2018


#	Modifying user name:	drognan
#	Modification time:	Wed Sep  5 12:09:46 2018

@<TRIPOS>MOLECULE
RDS
  21   22    0    0    0
SMALL
NO_CHARGES


@<TRIPOS>ATOM
   1 C1            -0.0161     1.5202     0.0147 C.3     
   2 C2             0.0020    -0.0097     0.0020 C.3     
   3 C3             0.7173    -0.5008    -1.2582 C.3     
   4 H4             1.7102    -0.0539    -1.3099 H       
   5 C5             0.8457    -2.0246    -1.2107 C.3     
   6 O6            -0.0362    -0.1219    -2.4118 O.3     
   7 C7             0.6588     0.1070    -3.5528 C.ar    
   8 C8            -0.0022     0.4847    -4.7154 C.ar    
   9 C9             0.7523     0.7094    -5.8644 C.ar    
  10 N10            2.0730     0.5560    -5.8116 N.ar    
  11 C11            2.6686     0.1946    -4.6848 C.ar    
  12 N12            1.9815    -0.0217    -3.5724 N.ar    
  13 S13            4.4200     0.0032    -4.6629 S.3     
  14 C14            4.7768     0.2556    -6.3698 C.ar    
  15 C15            5.1491     1.5148    -6.8246 C.ar    
  16 C16            5.4281     1.7098    -8.1627 C.ar    
  17 C17            5.3375     0.6536    -9.0509 C.ar    
  18 C18            4.9671    -0.6021    -8.6020 C.ar    
  19 C19            4.6921    -0.8050    -7.2627 C.ar    
  20 Cl20           4.8542    -1.9247    -9.7208 Cl      
  21 N21            0.1358     1.0873    -7.0468 N.pl3   
@<TRIPOS>BOND
   1    1    2 1
   2    2    3 1
   3    3    4 1
   4    3    5 1
   5    3    6 1
   6    6    7 1
   7    7   12 ar
   8    7    8 ar
   9    8    9 ar
  10    9   10 ar
  11    9   21 1
  12   10   11 ar
  13   11   12 ar
  14   11   13 1
  15   13   14 1
  16   14   19 ar
  17   14   15 ar
  18   15   16 ar
  19   16   17 ar
  20   17   18 ar
  21   18   19 ar
  22   18   20 1





