#       Name:                RMY
#       Creating user name   gbret
#       Creation time:       Fri Sep  9 15:36:34 2016


#       File generated by GOLD software.
#

@<TRIPOS>MOLECULE
RMY
    66    67     1
SMALL
NO_CHARGES


@<TRIPOS>ATOM
      1 C1          -3.8356   4.0021   2.6962 C.3            1 <1>                0.0000
      2 C2          -3.3598   2.5481   2.7170 C.3            1 <1>                0.0000
      3 S3          -2.6484   2.1216   1.1037 S.3            1 <1>                0.0000
      4 C4          -2.1504   0.3910   1.3220 C.3            1 <1>                0.0000
      5 O5          -3.3150  -0.4326   1.4092 O.3            1 <1>                0.0000
      6 C6          -3.0350  -1.8197   1.6088 C.3            1 <1>                0.0000
      7 C7          -4.3495  -2.5954   1.7148 C.3            1 <1>                0.0000
      8 O8          -5.0548  -2.1798   2.8861 O.3            1 <1>                0.0000
      9 C9          -2.2229  -2.3505   0.4246 C.3            1 <1>                0.0000
     10 O10         -2.9932  -2.2336  -0.7733 O.3            1 <1>                0.0000
     11 C11         -0.9369  -1.5296   0.2885 C.3            1 <1>                0.0000
     12 O12         -0.2077  -1.9702  -0.8588 O.3            1 <1>                0.0000
     13 C13          1.1375  -2.3619  -0.5773 C.3            1 <1>                0.0000
     14 C14          1.8418  -2.7432  -1.8820 C.3            1 <1>                0.0000
     15 C15          1.8968  -1.5184  -2.8003 C.3            1 <1>                0.0000
     16 O16          0.5685  -1.1150  -3.1391 O.3            1 <1>                0.0000
     17 C17          2.6080  -0.3764  -2.0679 C.3            1 <1>                0.0000
     18 N18          2.6010   0.8236  -2.9083 N.am           1 <1>                0.0000
     19 C19          3.5582   0.9989  -3.8407 C.2            1 <1>                0.0000
     20 C20          3.5509   2.2333  -4.7052 C.3            1 <1>                0.0000
     21 O21          4.4254   0.1633  -3.9841 O.2            1 <1>                0.0000
     22 C22          1.8741  -0.0865  -0.7560 C.3            1 <1>                0.0000
     23 O23          1.8318  -1.2745   0.0371 O.3            1 <1>                0.0000
     24 C24          2.6131   1.0125   0.0101 C.3            1 <1>                0.0000
     25 O25          2.6246   2.2107  -0.7685 O.3            1 <1>                0.0000
     26 C26          1.9016   1.2746   1.3390 C.3            1 <1>                0.0000
     27 O27          2.0013   0.1159   2.1693 O.3            1 <1>                0.0000
     28 C28          2.5576   2.4643   2.0427 C.3            1 <1>                0.0000
     29 O29          1.8221   2.7826   3.2258 O.3            1 <1>                0.0000
     30 C30          1.1316  -3.5456   0.3554 C.2            1 <1>                0.0000
     31 O31          0.0734  -4.0108   0.7432 O.co2          1 <1>                0.0000
     32 O32          2.1849  -4.0380   0.7221 O.co2          1 <1>                0.0000
     33 C33         -1.3028  -0.0510   0.1262 C.3            1 <1>                0.0000
     34 O34         -2.0487   0.1268  -1.0796 O.3            1 <1>                0.0000
     35 H35         -2.9906   4.6580   2.4869 H              1 <1>                0.0000
     36 H36         -4.5922   4.1258   1.9214 H              1 <1>                0.0000
     37 H37         -4.2631   4.2584   3.6656 H              1 <1>                0.0000
     38 H38         -2.6032   2.4244   3.4918 H              1 <1>                0.0000
     39 H39         -4.2048   1.8922   2.9263 H              1 <1>                0.0000
     40 H40         -1.5666   0.2934   2.2373 H              1 <1>                0.0000
     41 H41         -2.4630  -1.9464   2.5280 H              1 <1>                0.0000
     42 H42         -4.9600  -2.3978   0.8337 H              1 <1>                0.0000
     43 H43         -4.1374  -3.6627   1.7780 H              1 <1>                0.0000
     44 H44         -5.8997  -2.6313   3.0173 H              1 <1>                0.0000
     45 H45         -1.9715  -3.3973   0.5953 H              1 <1>                0.0000
     46 H46         -3.8255  -2.7255  -0.7553 H              1 <1>                0.0000
     47 H47         -0.3252  -1.6594   1.1813 H              1 <1>                0.0000
     48 H48          2.8551  -3.0806  -1.6638 H              1 <1>                0.0000
     49 H49          1.2887  -3.5430  -2.3743 H              1 <1>                0.0000
     50 H50          2.4450  -1.7680  -3.7087 H              1 <1>                0.0000
     51 H51          0.0568  -1.7937  -3.6002 H              1 <1>                0.0000
     52 H52          3.6370  -0.6655  -1.8544 H              1 <1>                0.0000
     53 H53          1.9074   1.4920  -2.7936 H              1 <1>                0.0000
     54 H54          4.1331   3.0183  -4.2225 H              1 <1>                0.0000
     55 H55          3.9896   2.0000  -5.6754 H              1 <1>                0.0000
     56 H56          2.5249   2.5744  -4.8429 H              1 <1>                0.0000
     57 H57          0.8576   0.2420  -0.9731 H              1 <1>                0.0000
     58 H58          3.6378   0.6947   0.2030 H              1 <1>                0.0000
     59 H59          1.7444   2.5517  -0.9785 H              1 <1>                0.0000
     60 H60          0.8514   1.4976   1.1510 H              1 <1>                0.0000
     61 H61          2.9098  -0.1415   2.3780 H              1 <1>                0.0000
     62 H62          3.5827   2.2081   2.3101 H              1 <1>                0.0000
     63 H63          2.5608   3.3252   1.3742 H              1 <1>                0.0000
     64 H64          2.1821   3.5292   3.7238 H              1 <1>                0.0000
     65 H65         -0.3925   0.5470   0.0841 H              1 <1>                0.0000
     66 H66         -2.3144   1.0414  -1.2465 H              1 <1>                0.0000
@<TRIPOS>BOND
    1    1    2 1     
    2    1   35 1     
    3    1   36 1     
    4    1   37 1     
    5    2    3 1     
    6    2   38 1     
    7    2   39 1     
    8    3    4 1     
    9    4   33 1     
   10    4    5 1     
   11    4   40 1     
   12    5    6 1     
   13    6    7 1     
   14    6    9 1     
   15    6   41 1     
   16    7    8 1     
   17    7   42 1     
   18    7   43 1     
   19    8   44 1     
   20    9   10 1     
   21    9   11 1     
   22    9   45 1     
   23   10   46 1     
   24   11   12 1     
   25   11   33 1     
   26   11   47 1     
   27   12   13 1     
   28   13   23 1     
   29   13   14 1     
   30   13   30 1     
   31   14   15 1     
   32   14   48 1     
   33   14   49 1     
   34   15   16 1     
   35   15   17 1     
   36   15   50 1     
   37   16   51 1     
   38   17   18 1     
   39   17   22 1     
   40   17   52 1     
   41   18   19 am    
   42   18   53 1     
   43   19   20 1     
   44   19   21 2     
   45   20   54 1     
   46   20   55 1     
   47   20   56 1     
   48   22   23 1     
   49   22   24 1     
   50   22   57 1     
   51   24   25 1     
   52   24   26 1     
   53   24   58 1     
   54   25   59 1     
   55   26   27 1     
   56   26   28 1     
   57   26   60 1     
   58   27   61 1     
   59   28   29 1     
   60   28   62 1     
   61   28   63 1     
   62   29   64 1     
   63   30   31 ar    
   64   30   32 ar    
   65   33   34 1     
   66   33   65 1     
   67   34   66 1     
@<TRIPOS>SUBSTRUCTURE
      1 ****           1
@<TRIPOS>SET
DONOR_HYDROGENS      STATIC     ATOMS    <user>   **** ""
8 44 46 51 53 59 61 64 66
ATOM$RED        STATIC     ATOMS    COLORGROUP SYSTEM
8 44 46 51 53 59 61 64 66
