#       Name:                RPO
#       Creating user name   gbret
#       Creation time:       Fri Sep  9 15:40:40 2016


#       File generated by GOLD software.
#

@<TRIPOS>MOLECULE
RPO
   105   109     1
SMALL
NO_CHARGES


@<TRIPOS>ATOM
      1 N1           4.6140   6.9392   1.5060 N.4            1 <1>                0.0000
      2 H2           4.8841   6.0021   1.2472 H              1 <1>                0.0000
      3 H3           5.4274   7.5362   1.5046 H              1 <1>                0.0000
      4 H4           3.9385   7.2896   0.8433 H              1 <1>                0.0000
      5 C5           4.0197   6.9243   2.8493 C.3            1 <1>                0.0000
      6 C6           2.7862   6.0191   2.8513 C.3            1 <1>                0.0000
      7 O7           3.1848   4.6699   2.6006 O.3            1 <1>                0.0000
      8 C8           2.1007   3.7400   2.5555 C.3            1 <1>                0.0000
      9 O9           2.6053   2.4330   2.2743 O.3            1 <1>                0.0000
     10 C10          3.1989   2.3050   0.9807 C.3            1 <1>                0.0000
     11 C11          4.2502   1.1732   0.9772 C.3            1 <1>                0.0000
     12 C12          4.7811   0.9349   2.3922 C.3            1 <1>                0.0000
     13 O13          5.8327  -0.0317   2.3499 O.3            1 <1>                0.0000
     14 O14          3.5376   0.0091   0.5049 O.3            1 <1>                0.0000
     15 C15          2.6887   0.4890  -0.5605 C.3            1 <1>                0.0000
     16 O16          1.6119  -0.4226  -0.7874 O.3            1 <1>                0.0000
     17 C17          2.0231  -1.6922  -1.2984 C.3            1 <1>                0.0000
     18 C18          2.3073  -2.6430  -0.1339 C.3            1 <1>                0.0000
     19 O19          1.1225  -2.8054   0.6484 O.3            1 <1>                0.0000
     20 C20          2.7475  -4.0023  -0.6810 C.3            1 <1>                0.0000
     21 N21          3.0204  -4.9151   0.4371 N.4            1 <1>                0.0000
     22 H22          2.1838  -5.0298   0.9895 H              1 <1>                0.0000
     23 H23          3.3107  -5.8116   0.0763 H              1 <1>                0.0000
     24 H24          3.7540  -4.5310   1.0136 H              1 <1>                0.0000
     25 C25          1.6351  -4.5848  -1.5552 C.3            1 <1>                0.0000
     26 C26          1.3509  -3.6340  -2.7197 C.3            1 <1>                0.0000
     27 N27          0.2829  -4.1933  -3.5590 N.4            1 <1>                0.0000
     28 H28         -0.5273  -4.3848  -2.9890 H              1 <1>                0.0000
     29 H29          0.0384  -3.5297  -4.2788 H              1 <1>                0.0000
     30 H30          0.6039  -5.0494  -3.9858 H              1 <1>                0.0000
     31 C31          0.9107  -2.2747  -2.1726 C.3            1 <1>                0.0000
     32 O32         -0.2741  -2.4371  -1.3903 O.3            1 <1>                0.0000
     33 C33         -1.2020  -1.3569  -1.5095 C.3            1 <1>                0.0000
     34 O34         -1.7943  -1.3788  -2.8098 O.3            1 <1>                0.0000
     35 C35         -2.7242  -0.3196  -3.0452 C.3            1 <1>                0.0000
     36 C36         -3.2701  -0.4272  -4.4705 C.3            1 <1>                0.0000
     37 O37         -2.2044  -0.2411  -5.4041 O.3            1 <1>                0.0000
     38 C38         -3.8798  -0.4255  -2.0466 C.3            1 <1>                0.0000
     39 O39         -4.5717  -1.6598  -2.2461 O.3            1 <1>                0.0000
     40 C40         -5.9861  -1.5692  -2.0641 C.3            1 <1>                0.0000
     41 C41         -6.5972  -2.9414  -2.1861 C.ar           1 <1>                0.0000
     42 C42         -7.0130  -3.4056  -3.4200 C.ar           1 <1>                0.0000
     43 C43         -7.5735  -4.6642  -3.5319 C.ar           1 <1>                0.0000
     44 C44         -7.7178  -5.4588  -2.4100 C.ar           1 <1>                0.0000
     45 C45         -7.3012  -4.9950  -1.1762 C.ar           1 <1>                0.0000
     46 C46         -6.7368  -3.7380  -1.0650 C.ar           1 <1>                0.0000
     47 C47         -3.3191  -0.3774  -0.6219 C.3            1 <1>                0.0000
     48 O48         -4.3830  -0.5493   0.3165 O.3            1 <1>                0.0000
     49 C49         -2.2963  -1.5045  -0.4492 C.3            1 <1>                0.0000
     50 N50         -2.9645  -2.8028  -0.6108 N.4            1 <1>                0.0000
     51 H51         -3.2322  -2.9254  -1.5758 H              1 <1>                0.0000
     52 H52         -2.3332  -3.5419  -0.3403 H              1 <1>                0.0000
     53 H53         -3.7870  -2.8326  -0.0271 H              1 <1>                0.0000
     54 C54          2.1480   1.8446  -0.0541 C.3            1 <1>                0.0000
     55 O55          0.8733   1.6741   0.5687 O.3            1 <1>                0.0000
     56 C56          1.3823   3.7299   3.9074 C.3            1 <1>                0.0000
     57 N57          2.3104   3.2793   4.9531 N.4            1 <1>                0.0000
     58 H58          3.1714   3.8010   4.8862 H              1 <1>                0.0000
     59 H59          1.8947   3.4311   5.8599 H              1 <1>                0.0000
     60 H60          2.5024   2.2962   4.8315 H              1 <1>                0.0000
     61 C61          0.8970   5.1466   4.2295 C.3            1 <1>                0.0000
     62 O62          0.2898   5.1614   5.5230 O.3            1 <1>                0.0000
     63 C63          2.0954   6.1006   4.2151 C.3            1 <1>                0.0000
     64 O64          3.0171   5.7250   5.2405 O.3            1 <1>                0.0000
     65 H65          4.7494   6.5458   3.5652 H              1 <1>                0.0000
     66 H66          3.7279   7.9366   3.1288 H              1 <1>                0.0000
     67 H67          2.0952   6.3446   2.0738 H              1 <1>                0.0000
     68 H68          1.4007   4.0354   1.7739 H              1 <1>                0.0000
     69 H69          3.6496   3.2487   0.6734 H              1 <1>                0.0000
     70 H70          5.0697   1.4185   0.3015 H              1 <1>                0.0000
     71 H71          5.1641   1.8708   2.7990 H              1 <1>                0.0000
     72 H72          3.9743   0.5665   3.0257 H              1 <1>                0.0000
     73 H73          6.2175  -0.2324   3.2141 H              1 <1>                0.0000
     74 H74          3.2673   0.6266  -1.4739 H              1 <1>                0.0000
     75 H75          2.9268  -1.5683  -1.8951 H              1 <1>                0.0000
     76 H76          3.0998  -2.2280   0.4889 H              1 <1>                0.0000
     77 H77          1.2294  -3.3969   1.4059 H              1 <1>                0.0000
     78 H78          3.6512  -3.8784  -1.2777 H              1 <1>                0.0000
     79 H79          1.9487  -5.5532  -1.9449 H              1 <1>                0.0000
     80 H80          0.7314  -4.7087  -0.9585 H              1 <1>                0.0000
     81 H81          2.2547  -3.5101  -3.3164 H              1 <1>                0.0000
     82 H82          0.7082  -1.5974  -3.0022 H              1 <1>                0.0000
     83 H83         -0.6797  -0.4114  -1.3637 H              1 <1>                0.0000
     84 H84         -2.2220   0.6396  -2.9198 H              1 <1>                0.0000
     85 H85         -3.7131  -1.4124  -4.6165 H              1 <1>                0.0000
     86 H86         -4.0290   0.3393  -4.6278 H              1 <1>                0.0000
     87 H87         -2.4783  -0.2964  -6.3298 H              1 <1>                0.0000
     88 H88         -4.5681   0.4063  -2.1964 H              1 <1>                0.0000
     89 H89         -6.2000  -1.1628  -1.0756 H              1 <1>                0.0000
     90 H90         -6.4092  -0.9141  -2.8256 H              1 <1>                0.0000
     91 H91         -6.9003  -2.7848  -4.2965 H              1 <1>                0.0000
     92 H92         -7.8990  -5.0266  -4.4958 H              1 <1>                0.0000
     93 H93         -8.1564  -6.4419  -2.4973 H              1 <1>                0.0000
     94 H94         -7.4143  -5.6156  -0.2997 H              1 <1>                0.0000
     95 H95         -6.4113  -3.3756  -0.1011 H              1 <1>                0.0000
     96 H96         -2.8355   0.5847  -0.4527 H              1 <1>                0.0000
     97 H97         -5.0717   0.1270   0.2586 H              1 <1>                0.0000
     98 H98         -1.8516  -1.4438   0.5441 H              1 <1>                0.0000
     99 H99          2.0809   2.5594  -0.8743 H              1 <1>                0.0000
    100 H100         0.1900   1.3286  -0.0219 H              1 <1>                0.0000
    101 H101         0.5290   3.0532   3.8614 H              1 <1>                0.0000
    102 H102         0.1695   5.4617   3.4815 H              1 <1>                0.0000
    103 H103        -0.0411   6.0292   5.7922 H              1 <1>                0.0000
    104 H104         1.7514   7.1202   4.3888 H              1 <1>                0.0000
    105 H105         2.6444   5.7492   6.1325 H              1 <1>                0.0000
@<TRIPOS>BOND
    1    1    2 1     
    2    1    3 1     
    3    1    4 1     
    4    1    5 1     
    5    5    6 1     
    6    5   65 1     
    7    5   66 1     
    8    6   63 1     
    9    6    7 1     
   10    6   67 1     
   11    7    8 1     
   12    8    9 1     
   13    8   56 1     
   14    8   68 1     
   15    9   10 1     
   16   10   54 1     
   17   10   11 1     
   18   10   69 1     
   19   11   12 1     
   20   11   14 1     
   21   11   70 1     
   22   12   13 1     
   23   12   71 1     
   24   12   72 1     
   25   13   73 1     
   26   14   15 1     
   27   15   16 1     
   28   15   54 1     
   29   15   74 1     
   30   16   17 1     
   31   17   31 1     
   32   17   18 1     
   33   17   75 1     
   34   18   19 1     
   35   18   20 1     
   36   18   76 1     
   37   19   77 1     
   38   20   21 1     
   39   20   25 1     
   40   20   78 1     
   41   21   22 1     
   42   21   23 1     
   43   21   24 1     
   44   25   26 1     
   45   25   79 1     
   46   25   80 1     
   47   26   27 1     
   48   26   31 1     
   49   26   81 1     
   50   27   28 1     
   51   27   29 1     
   52   27   30 1     
   53   31   32 1     
   54   31   82 1     
   55   32   33 1     
   56   33   49 1     
   57   33   34 1     
   58   33   83 1     
   59   34   35 1     
   60   35   36 1     
   61   35   38 1     
   62   35   84 1     
   63   36   37 1     
   64   36   85 1     
   65   36   86 1     
   66   37   87 1     
   67   38   39 1     
   68   38   47 1     
   69   38   88 1     
   70   39   40 1     
   71   40   41 1     
   72   40   89 1     
   73   40   90 1     
   74   41   46 ar    
   75   41   42 ar    
   76   42   43 ar    
   77   42   91 1     
   78   43   44 ar    
   79   43   92 1     
   80   44   45 ar    
   81   44   93 1     
   82   45   46 ar    
   83   45   94 1     
   84   46   95 1     
   85   47   48 1     
   86   47   49 1     
   87   47   96 1     
   88   48   97 1     
   89   49   50 1     
   90   49   98 1     
   91   50   51 1     
   92   50   52 1     
   93   50   53 1     
   94   54   55 1     
   95   54   99 1     
   96   55  100 1     
   97   56   57 1     
   98   56   61 1     
   99   56  101 1     
  100   57   58 1     
  101   57   59 1     
  102   57   60 1     
  103   61   62 1     
  104   61   63 1     
  105   61  102 1     
  106   62  103 1     
  107   63   64 1     
  108   63  104 1     
  109   64  105 1     
@<TRIPOS>SUBSTRUCTURE
      1 ****           1
@<TRIPOS>SET
DONOR_HYDROGENS      STATIC     ATOMS    <user>   **** ""
22 2 3 4 73 77 22 23 24 28 29 30 87 97 51 52 53 100 58 \
 59 60 103 105
ATOM$RED        STATIC     ATOMS    COLORGROUP SYSTEM
22 2 3 4 73 77 22 23 24 28 29 30 87 97 51 52 53 100 58 \
 59 60 103 105
