#       Name:                RRM
#       Creating user name   gbret
#       Creation time:       Fri Sep  9 15:41:49 2016


#       File generated by GOLD software.
#

@<TRIPOS>MOLECULE
RRM
    85    86     1
SMALL
NO_CHARGES


@<TRIPOS>ATOM
      1 C1          -0.5738   1.5979   8.0616 C.3            1 <1>                0.0000
      2 C2          -0.5739   1.7365   6.5379 C.3            1 <1>                0.0000
      3 C3           0.7068   1.1216   5.9699 C.3            1 <1>                0.0000
      4 C4           0.7068   1.2601   4.4461 C.3            1 <1>                0.0000
      5 C5           1.9875   0.6453   3.8781 C.3            1 <1>                0.0000
      6 C6           1.9907  -0.8639   4.1401 C.3            1 <1>                0.0000
      7 C7           3.2391  -1.4792   3.5002 C.3            1 <1>                0.0000
      8 C8           3.2528  -1.1488   2.0055 C.3            1 <1>                0.0000
      9 C9           4.5297  -1.7081   1.3733 C.3            1 <1>                0.0000
     10 C10          4.5085  -1.4323  -0.1332 C.3            1 <1>                0.0000
     11 C11          3.2426  -2.0488  -0.7363 C.3            1 <1>                0.0000
     12 C12          3.2757  -3.5673  -0.5523 C.3            1 <1>                0.0000
     13 C13          2.0157  -1.4736  -0.0237 C.3            1 <1>                0.0000
     14 C14          0.7493  -2.1278  -0.5797 C.3            1 <1>                0.0000
     15 C15         -0.1353  -1.0714  -1.1901 C.2            1 <1>                0.0000
     16 C16         -0.5489  -1.1960  -2.4466 C.2            1 <1>                0.0000
     17 C17          0.0289  -2.2744  -3.3266 C.3            1 <1>                0.0000
     18 C18         -1.5709  -0.2813  -2.9788 C.2            1 <1>                0.0000
     19 C19         -2.0834  -0.4884  -4.1871 C.2            1 <1>                0.0000
     20 C20         -3.1500   0.4326  -4.7211 C.3            1 <1>                0.0000
     21 O21         -3.4854   1.4010  -3.7252 O.3            1 <1>                0.0000
     22 C22         -2.6292   1.1455  -5.9707 C.3            1 <1>                0.0000
     23 C23         -2.3970   0.1209  -7.0829 C.3            1 <1>                0.0000
     24 C24         -3.6431   2.1624  -6.4282 C.2            1 <1>                0.0000
     25 C25         -3.3115   3.4513  -6.4926 C.2            1 <1>                0.0000
     26 C26         -4.2985   4.4412  -6.9379 C.2            1 <1>                0.0000
     27 O27         -5.4262   4.0831  -7.2502 O.co2          1 <1>                0.0000
     28 O28         -3.9940   5.6250  -6.9971 O.co2          1 <1>                0.0000
     29 O29          2.1128  -1.7379   1.3773 O.3            1 <1>                0.0000
     30 O30          3.2159   0.2687   1.8310 O.3            1 <1>                0.0000
     31 C31          2.0483   0.8932   2.3686 C.3            1 <1>                0.0000
     32 C32          0.8213   0.3123   1.7142 C.2            1 <1>                0.0000
     33 C33         -0.0622   1.1172   1.1189 C.2            1 <1>                0.0000
     34 C34         -1.4477   0.6829   0.9484 C.2            1 <1>                0.0000
     35 C35         -1.8996  -0.6363   1.5200 C.3            1 <1>                0.0000
     36 C36         -2.3257   1.4666   0.2765 C.2            1 <1>                0.0000
     37 C37         -3.7117   1.3547   0.5313 C.2            1 <1>                0.0000
     38 O38         -4.1041   0.9696   1.6263 O.co2          1 <1>                0.0000
     39 O39         -4.5205   1.6428  -0.3427 O.co2          1 <1>                0.0000
     40 H40          0.2919   2.1165   8.4736 H              1 <1>                0.0000
     41 H41         -1.4862   2.0359   8.4663 H              1 <1>                0.0000
     42 H42         -0.5272   0.5426   8.3305 H              1 <1>                0.0000
     43 H43         -1.4396   1.2179   6.1259 H              1 <1>                0.0000
     44 H44         -0.6206   2.7917   6.2690 H              1 <1>                0.0000
     45 H45          1.5726   1.6402   6.3818 H              1 <1>                0.0000
     46 H46          0.7535   0.0663   6.2387 H              1 <1>                0.0000
     47 H47         -0.1589   0.7416   4.0342 H              1 <1>                0.0000
     48 H48          0.6601   2.3154   4.1773 H              1 <1>                0.0000
     49 H49          2.8540   1.1010   4.3573 H              1 <1>                0.0000
     50 H50          2.0035  -1.0476   5.2144 H              1 <1>                0.0000
     51 H51          1.0984  -1.3118   3.7028 H              1 <1>                0.0000
     52 H52          4.1310  -1.0674   3.9724 H              1 <1>                0.0000
     53 H53          3.2214  -2.5608   3.6339 H              1 <1>                0.0000
     54 H54          5.3989  -1.2251   1.8197 H              1 <1>                0.0000
     55 H55          4.5808  -2.7832   1.5460 H              1 <1>                0.0000
     56 H56          4.5084  -0.3562  -0.3069 H              1 <1>                0.0000
     57 H57          5.3881  -1.8779  -0.5979 H              1 <1>                0.0000
     58 H58          3.1925  -1.8116  -1.7990 H              1 <1>                0.0000
     59 H59          3.3234  -3.8036   0.5107 H              1 <1>                0.0000
     60 H60          2.3745  -4.0051  -0.9818 H              1 <1>                0.0000
     61 H61          4.1527  -3.9752  -1.0549 H              1 <1>                0.0000
     62 H62          1.9711  -0.3971  -0.1884 H              1 <1>                0.0000
     63 H63          1.0221  -2.8579  -1.3417 H              1 <1>                0.0000
     64 H64          0.2141  -2.6278   0.2276 H              1 <1>                0.0000
     65 H65         -0.4330  -0.2130  -0.6062 H              1 <1>                0.0000
     66 H66         -0.5556  -3.1875  -3.2136 H              1 <1>                0.0000
     67 H67         -0.0018  -1.9498  -4.3667 H              1 <1>                0.0000
     68 H68          1.0618  -2.4658  -3.0361 H              1 <1>                0.0000
     69 H69         -1.9045   0.5585  -2.3874 H              1 <1>                0.0000
     70 H70         -1.7357  -1.3168  -4.7864 H              1 <1>                0.0000
     71 H71         -4.0365  -0.1477  -4.9768 H              1 <1>                0.0000
     72 H72         -2.7423   1.9548  -3.4490 H              1 <1>                0.0000
     73 H73         -1.6904   1.6479  -5.7377 H              1 <1>                0.0000
     74 H74         -1.9536   0.6164  -7.9467 H              1 <1>                0.0000
     75 H75         -1.7230  -0.6574  -6.7250 H              1 <1>                0.0000
     76 H76         -3.3488  -0.3263  -7.3695 H              1 <1>                0.0000
     77 H77         -4.6383   1.8463  -6.7037 H              1 <1>                0.0000
     78 H78         -2.3162   3.7674  -6.2170 H              1 <1>                0.0000
     79 H79          2.0890   1.9655   2.1777 H              1 <1>                0.0000
     80 H80          0.6566  -0.7550   1.7267 H              1 <1>                0.0000
     81 H81          0.2467   2.0891   0.7633 H              1 <1>                0.0000
     82 H82         -2.2242  -0.4935   2.5507 H              1 <1>                0.0000
     83 H83         -2.7290  -1.0236   0.9282 H              1 <1>                0.0000
     84 H84         -1.0725  -1.3457   1.4944 H              1 <1>                0.0000
     85 H85         -1.9665   2.1766  -0.4538 H              1 <1>                0.0000
@<TRIPOS>BOND
    1    1    2 1     
    2    1   40 1     
    3    1   41 1     
    4    1   42 1     
    5    2    3 1     
    6    2   43 1     
    7    2   44 1     
    8    3    4 1     
    9    3   45 1     
   10    3   46 1     
   11    4    5 1     
   12    4   47 1     
   13    4   48 1     
   14    5   31 1     
   15    5    6 1     
   16    5   49 1     
   17    6    7 1     
   18    6   50 1     
   19    6   51 1     
   20    7    8 1     
   21    7   52 1     
   22    7   53 1     
   23    8   29 1     
   24    8    9 1     
   25    8   30 1     
   26    9   10 1     
   27    9   54 1     
   28    9   55 1     
   29   10   11 1     
   30   10   56 1     
   31   10   57 1     
   32   11   12 1     
   33   11   13 1     
   34   11   58 1     
   35   12   59 1     
   36   12   60 1     
   37   12   61 1     
   38   13   14 1     
   39   13   29 1     
   40   13   62 1     
   41   14   15 1     
   42   14   63 1     
   43   14   64 1     
   44   15   16 2     
   45   15   65 1     
   46   16   17 1     
   47   16   18 1     
   48   17   66 1     
   49   17   67 1     
   50   17   68 1     
   51   18   19 2     
   52   18   69 1     
   53   19   20 1     
   54   19   70 1     
   55   20   21 1     
   56   20   22 1     
   57   20   71 1     
   58   21   72 1     
   59   22   23 1     
   60   22   24 1     
   61   22   73 1     
   62   23   74 1     
   63   23   75 1     
   64   23   76 1     
   65   24   25 2     
   66   24   77 1     
   67   25   26 1     
   68   25   78 1     
   69   26   27 ar    
   70   26   28 ar    
   71   30   31 1     
   72   31   32 1     
   73   31   79 1     
   74   32   33 2     
   75   32   80 1     
   76   33   34 1     
   77   33   81 1     
   78   34   35 1     
   79   34   36 2     
   80   35   82 1     
   81   35   83 1     
   82   35   84 1     
   83   36   37 1     
   84   36   85 1     
   85   37   38 ar    
   86   37   39 ar    
@<TRIPOS>SUBSTRUCTURE
      1 ****           1
@<TRIPOS>SET
DONOR_HYDROGENS      STATIC     ATOMS    <user>   **** ""
1 72
ATOM$RED        STATIC     ATOMS    COLORGROUP SYSTEM
1 72
