#       Name:                RYX
#       Creating user name   gbret
#       Creation time:       Fri Sep  9 15:48:24 2016


#       File generated by GOLD software.
#

@<TRIPOS>MOLECULE
RYX
    30    30     1
SMALL
NO_CHARGES


@<TRIPOS>ATOM
      1 N1          -4.7628   2.9014  -0.7449 N.pl3          1 <1>                0.0000
      2 S2          -4.7403   1.2455  -0.7540 S.o2           1 <1>                0.0000
      3 O3          -5.2673   0.8302   0.4986 O.2            1 <1>                0.0000
      4 O4          -5.2912   0.8436  -2.0007 O.2            1 <1>                0.0000
      5 C5          -3.0504   0.7469  -0.7728 C.ar           1 <1>                0.0000
      6 C6          -2.3998   0.5639  -1.9800 C.ar           1 <1>                0.0000
      7 C7          -1.0767   0.1736  -2.0018 C.ar           1 <1>                0.0000
      8 C8          -0.3946  -0.0367  -0.8024 C.ar           1 <1>                0.0000
      9 C9          -1.0569   0.1497   0.4120 C.ar           1 <1>                0.0000
     10 C10         -2.3784   0.5456   0.4198 C.ar           1 <1>                0.0000
     11 C11          1.0232  -0.4555  -0.8182 C.2            1 <1>                0.0000
     12 O12          1.5973  -0.6174  -1.8773 O.2            1 <1>                0.0000
     13 N13          1.6791  -0.6578   0.3417 N.am           1 <1>                0.0000
     14 C14          3.0840  -1.0728   0.3261 C.3            1 <1>                0.0000
     15 C15          3.5850  -1.2314   1.7630 C.3            1 <1>                0.0000
     16 F16          3.4669  -0.0103   2.4354 F              1 <1>                0.0000
     17 F17          2.8195  -2.2011   2.4194 F              1 <1>                0.0000
     18 C18          5.0522  -1.6648   1.7467 C.3            1 <1>                0.0000
     19 F19          5.8177  -0.6951   1.0902 F              1 <1>                0.0000
     20 F20          5.5103  -1.8098   3.0606 F              1 <1>                0.0000
     21 F21          5.1703  -2.8859   1.0742 F              1 <1>                0.0000
     22 H22         -3.9294   3.3977  -0.7502 H              1 <1>                0.0000
     23 H23         -5.6093   3.3749  -0.7383 H              1 <1>                0.0000
     24 H24         -2.9288   0.7267  -2.9074 H              1 <1>                0.0000
     25 H25         -0.5700   0.0308  -2.9448 H              1 <1>                0.0000
     26 H26         -0.5347  -0.0115   1.3436 H              1 <1>                0.0000
     27 H27         -2.8921   0.6901   1.3587 H              1 <1>                0.0000
     28 H28          1.2209  -0.5286   1.1869 H              1 <1>                0.0000
     29 H29          3.1760  -2.0242  -0.1978 H              1 <1>                0.0000
     30 H30          3.6804  -0.3173  -0.1854 H              1 <1>                0.0000
@<TRIPOS>BOND
    1    1    2 1     
    2    1   22 1     
    3    1   23 1     
    4    2    3 2     
    5    2    4 2     
    6    2    5 1     
    7    5   10 ar    
    8    5    6 ar    
    9    6    7 ar    
   10    6   24 1     
   11    7    8 ar    
   12    7   25 1     
   13    8    9 ar    
   14    8   11 1     
   15    9   10 ar    
   16    9   26 1     
   17   10   27 1     
   18   11   12 2     
   19   11   13 am    
   20   13   14 1     
   21   13   28 1     
   22   14   15 1     
   23   14   29 1     
   24   14   30 1     
   25   15   16 1     
   26   15   17 1     
   27   15   18 1     
   28   18   19 1     
   29   18   20 1     
   30   18   21 1     
@<TRIPOS>SUBSTRUCTURE
      1 ****           1
@<TRIPOS>SET
DONOR_HYDROGENS      STATIC     ATOMS    <user>   **** ""
3 22 23 28
ATOM$RED        STATIC     ATOMS    COLORGROUP SYSTEM
3 22 23 28
