#       Name:                RZX
#       Creating user name   gbret
#       Creation time:       Fri Sep  9 15:49:16 2016


#       File generated by GOLD software.
#

@<TRIPOS>MOLECULE
RZX
    46    48     1
SMALL
NO_CHARGES


@<TRIPOS>ATOM
      1 C1           3.3487   8.3576   0.4326 C.3            1 <1>                0.0000
      2 O2           3.3681   6.9287   0.4247 O.3            1 <1>                0.0000
      3 C3           2.0707   6.3298   0.4339 C.3            1 <1>                0.0000
      4 C4           2.2122   4.8064   0.4244 C.3            1 <1>                0.0000
      5 C5           0.8231   4.1651   0.4342 C.3            1 <1>                0.0000
      6 O6           0.9552   2.7423   0.4253 O.3            1 <1>                0.0000
      7 C7          -0.1920   2.0168   0.4323 C.ar           1 <1>                0.0000
      8 C8          -1.4347   2.6458   0.4417 C.ar           1 <1>                0.0000
      9 C9          -2.5775   1.8731   0.4482 C.ar           1 <1>                0.0000
     10 N10         -2.5030   0.5555   0.4456 N.ar           1 <1>                0.0000
     11 C11         -1.3448  -0.0767   0.4368 C.ar           1 <1>                0.0000
     12 C12         -1.3195  -1.5834   0.4337 C.3            1 <1>                0.0000
     13 S13         -1.3206  -2.1847  -1.2777 S.o            1 <1>                0.0000
     14 O14         -0.0626  -1.9078  -1.8778 O.2            1 <1>                0.0000
     15 C15         -1.2899  -3.9356  -1.0827 C.2            1 <1>                0.0000
     16 N16         -0.2106  -4.6578  -1.0015 N.2            1 <1>                0.0000
     17 C17         -0.5462  -5.9654  -0.8561 C.ar           1 <1>                0.0000
     18 C18          0.1962  -7.1420  -0.7250 C.ar           1 <1>                0.0000
     19 C19         -0.4456  -8.3406  -0.5923 C.ar           1 <1>                0.0000
     20 C20         -1.8319  -8.4044  -0.5866 C.ar           1 <1>                0.0000
     21 C21         -2.5846  -7.2567  -0.7145 C.ar           1 <1>                0.0000
     22 C22         -1.9497  -6.0294  -0.8499 C.ar           1 <1>                0.0000
     23 N23         -2.3911  -4.7288  -0.9891 N.pl3          1 <1>                0.0000
     24 H24         -3.3152  -4.4351  -1.0171 H              1 <1>                0.0000
     25 C25         -0.1566   0.6248   0.4245 C.ar           1 <1>                0.0000
     26 C26          1.1615  -0.1056   0.4140 C.3            1 <1>                0.0000
     27 H27          4.3713   8.7349   0.4248 H              1 <1>                0.0000
     28 H28          2.8215   8.7187  -0.4505 H              1 <1>                0.0000
     29 H29          2.8385   8.7091   1.3294 H              1 <1>                0.0000
     30 H30          1.5340   6.6392   1.3307 H              1 <1>                0.0000
     31 H31          1.5170   6.6488  -0.4491 H              1 <1>                0.0000
     32 H32          2.7489   4.4969  -0.4725 H              1 <1>                0.0000
     33 H33          2.7659   4.4874   1.3074 H              1 <1>                0.0000
     34 H34          0.2864   4.4746   1.3310 H              1 <1>                0.0000
     35 H35          0.2694   4.4841  -0.4489 H              1 <1>                0.0000
     36 H36         -1.5027   3.7236   0.4442 H              1 <1>                0.0000
     37 H37         -3.5453   2.3525   0.4558 H              1 <1>                0.0000
     38 H38         -0.4202  -1.9327   0.9410 H              1 <1>                0.0000
     39 H39         -2.1999  -1.9627   0.9526 H              1 <1>                0.0000
     40 H40          1.2755  -7.1039  -0.7289 H              1 <1>                0.0000
     41 H41          0.1317  -9.2477  -0.4912 H              1 <1>                0.0000
     42 H42         -2.3243  -9.3598  -0.4815 H              1 <1>                0.0000
     43 H43         -3.6632  -7.3118  -0.7091 H              1 <1>                0.0000
     44 H44          1.4700  -0.2839  -0.6161 H              1 <1>                0.0000
     45 H45          1.9154   0.4978   0.9198 H              1 <1>                0.0000
     46 H46          1.0527  -1.0591   0.9309 H              1 <1>                0.0000
@<TRIPOS>BOND
    1    1    2 1     
    2    1   27 1     
    3    1   28 1     
    4    1   29 1     
    5    2    3 1     
    6    3    4 1     
    7    3   30 1     
    8    3   31 1     
    9    4    5 1     
   10    4   32 1     
   11    4   33 1     
   12    5    6 1     
   13    5   34 1     
   14    5   35 1     
   15    6    7 1     
   16    7   25 ar    
   17    7    8 ar    
   18    8    9 ar    
   19    8   36 1     
   20    9   10 ar    
   21    9   37 1     
   22   10   11 ar    
   23   11   12 1     
   24   11   25 ar    
   25   12   13 1     
   26   12   38 1     
   27   12   39 1     
   28   13   14 2     
   29   13   15 1     
   30   15   23 1     
   31   15   16 2     
   32   16   17 1     
   33   17   22 ar    
   34   17   18 ar    
   35   18   19 ar    
   36   18   40 1     
   37   19   20 ar    
   38   19   41 1     
   39   20   21 ar    
   40   20   42 1     
   41   21   22 ar    
   42   21   43 1     
   43   22   23 1     
   44   23   24 1     
   45   25   26 1     
   46   26   44 1     
   47   26   45 1     
   48   26   46 1     
@<TRIPOS>SUBSTRUCTURE
      1 ****           1
@<TRIPOS>SET
DONOR_HYDROGENS      STATIC     ATOMS    <user>   **** ""
1 24
ATOM$RED        STATIC     ATOMS    COLORGROUP SYSTEM
1 24
