@<TRIPOS>MOLECULE
S2H
   4    3    0    0    0
SMALL
NO_CHARGES


@<TRIPOS>ATOM
   1 S1            -0.0257     2.0457     0.0133 S.3     
   2 S2             0.0021    -0.0041     0.0020 S.3     
   3 H3             1.2805     2.3661     0.0025 H       
   4 H4            -1.3042    -0.3244     0.0128 H       
@<TRIPOS>BOND
   1    1    2 1
   2    1    3 1
   3    2    4 1





