#       Name:                S8F
#       Creating user name   gbret
#       Creation time:       Fri Sep  9 15:57:12 2016


#       File generated by GOLD software.
#

@<TRIPOS>MOLECULE
S8F
    42    44     1
SMALL
NO_CHARGES


@<TRIPOS>ATOM
      1 F1          -3.7790  -5.5863  -3.0489 F              1 <1>                0.0000
      2 C2          -3.7973  -4.2354  -3.0415 C.ar           1 <1>                0.0000
      3 C3          -5.0055  -3.5589  -3.0205 C.ar           1 <1>                0.0000
      4 C4          -5.0230  -2.1773  -3.0130 C.ar           1 <1>                0.0000
      5 C5          -3.8349  -1.4702  -3.0268 C.ar           1 <1>                0.0000
      6 C6          -2.6284  -2.1444  -3.0477 C.ar           1 <1>                0.0000
      7 C7          -1.3343  -1.3723  -3.0622 C.3            1 <1>                0.0000
      8 C8          -0.8756  -1.1186  -1.6248 C.3            1 <1>                0.0000
      9 C9           0.4383  -0.3347  -1.6396 C.3            1 <1>                0.0000
     10 N10          0.8787  -0.0911  -0.2595 N.4            1 <1>                0.0000
     11 H11          0.1747   0.4415   0.2292 H              1 <1>                0.0000
     12 H12          1.0187  -0.9734   0.2096 H              1 <1>                0.0000
     13 C13          2.1401   0.6615  -0.2736 C.3            1 <1>                0.0000
     14 C14          2.5919   0.9114   1.1422 C.ar           1 <1>                0.0000
     15 C15          3.5007   0.0587   1.7497 C.ar           1 <1>                0.0000
     16 C16          3.8895   0.3258   3.0529 C.ar           1 <1>                0.0000
     17 N17          3.3848   1.3796   3.6733 N.ar           1 <1>                0.0000
     18 C18          2.5192   2.1733   3.0640 C.ar           1 <1>                0.0000
     19 N19          2.1306   1.9500   1.8188 N.ar           1 <1>                0.0000
     20 N20          2.0074   3.2750   3.7490 N.pl3          1 <1>                0.0000
     21 C21          2.3126   3.6518   5.0330 C.2            1 <1>                0.0000
     22 C22          1.5992   4.7629   5.2929 C.2            1 <1>                0.0000
     23 N23          0.8762   5.0623   4.2029 N.2            1 <1>                0.0000
     24 C24          1.1157   4.1831   3.2694 C.2            1 <1>                0.0000
     25 C25         -2.6083  -3.5264  -3.0490 C.ar           1 <1>                0.0000
     26 H26         -5.9337  -4.1110  -3.0104 H              1 <1>                0.0000
     27 H27         -5.9651  -1.6495  -2.9967 H              1 <1>                0.0000
     28 H28         -3.8495  -0.3903  -3.0216 H              1 <1>                0.0000
     29 H29         -0.5738  -1.9477  -3.5901 H              1 <1>                0.0000
     30 H30         -1.4855  -0.4191  -3.5689 H              1 <1>                0.0000
     31 H31         -1.6361  -0.5432  -1.0970 H              1 <1>                0.0000
     32 H32         -0.7243  -2.0717  -1.1181 H              1 <1>                0.0000
     33 H33          1.1988  -0.9101  -2.1674 H              1 <1>                0.0000
     34 H34          0.2870   0.6184  -2.1463 H              1 <1>                0.0000
     35 H35          2.9006   0.0861  -0.8015 H              1 <1>                0.0000
     36 H36          1.9889   1.6146  -0.7803 H              1 <1>                0.0000
     37 H37          3.8965  -0.7949   1.2195 H              1 <1>                0.0000
     38 H38          4.5955  -0.3185   3.5558 H              1 <1>                0.0000
     39 H39          2.9941   3.1524   5.7057 H              1 <1>                0.0000
     40 H40          1.6072   5.3181   6.2192 H              1 <1>                0.0000
     41 H41          0.6740   4.1734   2.2839 H              1 <1>                0.0000
     42 H42         -1.6655  -4.0530  -3.0653 H              1 <1>                0.0000
@<TRIPOS>BOND
    1    1    2 1     
    2    2   25 ar    
    3    2    3 ar    
    4    3    4 ar    
    5    3   26 1     
    6    4    5 ar    
    7    4   27 1     
    8    5    6 ar    
    9    5   28 1     
   10    6    7 1     
   11    6   25 ar    
   12    7    8 1     
   13    7   29 1     
   14    7   30 1     
   15    8    9 1     
   16    8   31 1     
   17    8   32 1     
   18    9   10 1     
   19    9   33 1     
   20    9   34 1     
   21   10   11 1     
   22   10   12 1     
   23   10   13 1     
   24   13   14 1     
   25   13   35 1     
   26   13   36 1     
   27   14   19 ar    
   28   14   15 ar    
   29   15   16 ar    
   30   15   37 1     
   31   16   17 ar    
   32   16   38 1     
   33   17   18 ar    
   34   18   19 ar    
   35   18   20 1     
   36   20   24 1     
   37   20   21 1     
   38   21   22 2     
   39   21   39 1     
   40   22   23 1     
   41   22   40 1     
   42   23   24 2     
   43   24   41 1     
   44   25   42 1     
@<TRIPOS>SUBSTRUCTURE
      1 ****           1
@<TRIPOS>SET
DONOR_HYDROGENS      STATIC     ATOMS    <user>   **** ""
2 11 12
ATOM$RED        STATIC     ATOMS    COLORGROUP SYSTEM
2 11 12
