#       Name:                SEG
#       Creating user name   gbret
#       Creation time:       Fri Sep  9 16:06:14 2016


#       File generated by GOLD software.
#

@<TRIPOS>MOLECULE
SEG
    14    13     1
SMALL
NO_CHARGES


@<TRIPOS>ATOM
      1 N1           0.2092  -0.3375  -1.3717 N.4            1 <1>                0.0000
      2 H2           0.2229  -1.3464  -1.3773 H              1 <1>                0.0000
      3 H3           1.1558   0.0118  -1.3789 H              1 <1>                0.0000
      4 H4          -0.2788  -0.0032  -2.1892 H              1 <1>                0.0000
      5 C5          -0.4784   0.1363  -0.1631 C.3            1 <1>                0.0000
      6 C6           0.2616  -0.3706   1.0764 C.3            1 <1>                0.0000
      7 O7           0.1807  -1.7963   1.1297 O.3            1 <1>                0.0000
      8 C8          -0.4988   1.6431  -0.1548 C.2            1 <1>                0.0000
      9 O9           0.0120   2.2648  -1.0708 O.co2          1 <1>                0.0000
     10 O10         -1.0262   2.2406   0.7679 O.co2          1 <1>                0.0000
     11 H11         -1.5010  -0.2410  -0.1554 H              1 <1>                0.0000
     12 H12          1.3074  -0.0677   1.0244 H              1 <1>                0.0000
     13 H13         -0.1953   0.0530   1.9708 H              1 <1>                0.0000
     14 H14          0.6292  -2.1875   1.8918 H              1 <1>                0.0000
@<TRIPOS>BOND
    1    1    2 1     
    2    1    3 1     
    3    1    4 1     
    4    1    5 1     
    5    5    6 1     
    6    5    8 1     
    7    5   11 1     
    8    6    7 1     
    9    6   12 1     
   10    6   13 1     
   11    7   14 1     
   12    8    9 ar    
   13    8   10 ar    
@<TRIPOS>SUBSTRUCTURE
      1 ****           1
@<TRIPOS>SET
DONOR_HYDROGENS      STATIC     ATOMS    <user>   **** ""
4 2 3 4 14
ATOM$RED        STATIC     ATOMS    COLORGROUP SYSTEM
4 2 3 4 14
