#       Name:                SFQ
#       Creating user name   gbret
#       Creation time:       Fri Sep  9 16:08:14 2016


#       File generated by GOLD software.
#

@<TRIPOS>MOLECULE
SFQ
    29    30     1
SMALL
NO_CHARGES


@<TRIPOS>ATOM
      1 O1           1.3365  -3.7209  -1.4871 O.co2          1 <1>                0.0000
      2 C2           1.2211  -2.5054  -1.5675 C.2            1 <1>                0.0000
      3 O3           2.2128  -1.8056  -1.7220 O.co2          1 <1>                0.0000
      4 C4          -0.1100  -1.8862  -1.4846 C.ar           1 <1>                0.0000
      5 C5          -1.2473  -2.6820  -1.3079 C.ar           1 <1>                0.0000
      6 C6          -2.4903  -2.0955  -1.2307 C.ar           1 <1>                0.0000
      7 C7          -2.6232  -0.7185  -1.3274 C.ar           1 <1>                0.0000
      8 C8          -1.5128   0.0807  -1.5021 C.ar           1 <1>                0.0000
      9 C9          -0.2481  -0.4908  -1.5763 C.ar           1 <1>                0.0000
     10 N10          0.8704   0.3107  -1.7515 N.pl3          1 <1>                0.0000
     11 S11          0.9386   1.8041  -1.0391 S.o2           1 <1>                0.0000
     12 O12          2.2445   2.3071  -1.2858 O.2            1 <1>                0.0000
     13 O13         -0.2442   2.4887  -1.4281 O.2            1 <1>                0.0000
     14 C14          0.8211   1.5574   0.7016 C.ar           1 <1>                0.0000
     15 C15         -0.4175   1.5419   1.3153 C.ar           1 <1>                0.0000
     16 C16         -0.5101   1.3480   2.6807 C.ar           1 <1>                0.0000
     17 C17          0.6366   1.1694   3.4329 C.ar           1 <1>                0.0000
     18 I18          0.4967   0.8747   5.5024 I              1 <1>                0.0000
     19 C19          1.8755   1.1849   2.8187 C.ar           1 <1>                0.0000
     20 C20          1.9671   1.3736   1.4525 C.ar           1 <1>                0.0000
     21 H21         -1.1501  -3.7550  -1.2327 H              1 <1>                0.0000
     22 H22         -3.3670  -2.7113  -1.0943 H              1 <1>                0.0000
     23 H23         -3.6032  -0.2688  -1.2658 H              1 <1>                0.0000
     24 H24         -1.6257   1.1521  -1.5767 H              1 <1>                0.0000
     25 H25          1.6126  -0.0035  -2.2913 H              1 <1>                0.0000
     26 H26         -1.3130   1.6818   0.7279 H              1 <1>                0.0000
     27 H27         -1.4778   1.3363   3.1602 H              1 <1>                0.0000
     28 H28          2.7712   1.0458   3.4060 H              1 <1>                0.0000
     29 H29          2.9347   1.3858   0.9728 H              1 <1>                0.0000
@<TRIPOS>BOND
    1    1    2 ar    
    2    2    3 ar    
    3    2    4 1     
    4    4    9 ar    
    5    4    5 ar    
    6    5    6 ar    
    7    5   21 1     
    8    6    7 ar    
    9    6   22 1     
   10    7    8 ar    
   11    7   23 1     
   12    8    9 ar    
   13    8   24 1     
   14    9   10 1     
   15   10   11 1     
   16   10   25 1     
   17   11   12 2     
   18   11   13 2     
   19   11   14 1     
   20   14   20 ar    
   21   14   15 ar    
   22   15   16 ar    
   23   15   26 1     
   24   16   17 ar    
   25   16   27 1     
   26   17   18 1     
   27   17   19 ar    
   28   19   20 ar    
   29   19   28 1     
   30   20   29 1     
@<TRIPOS>SUBSTRUCTURE
      1 ****           1
@<TRIPOS>SET
DONOR_HYDROGENS      STATIC     ATOMS    <user>   **** ""
1 25
ATOM$RED        STATIC     ATOMS    COLORGROUP SYSTEM
1 25
