#       Name:                SH1
#       Creating user name   gbret
#       Creation time:       Fri Sep  9 16:10:20 2016


#       File generated by GOLD software.
#

@<TRIPOS>MOLECULE
SH1
    68    68     1
SMALL
NO_CHARGES


@<TRIPOS>ATOM
      1 C1           0.9333   3.2297  -0.0504 C.3            1 <1>                0.0000
      2 C2           0.9541   1.6998  -0.0588 C.3            1 <1>                0.0000
      3 N3          -0.4203   1.1927  -0.0484 N.am           1 <1>                0.0000
      4 C4          -1.0766   1.0487   1.1199 C.2            1 <1>                0.0000
      5 O5          -0.5294   1.3389   2.1627 O.2            1 <1>                0.0000
      6 C6          -2.4904   0.5271   1.1306 C.3            1 <1>                0.0000
      7 C7          -2.5223  -0.8727   0.5138 C.3            1 <1>                0.0000
      8 O8          -1.5980  -1.7177   1.2020 O.3            1 <1>                0.0000
      9 N9          -2.9771   0.4636   2.5110 N.pl3          1 <1>                0.0000
     10 S10         -4.5674   0.7836   2.8438 S.o2           1 <1>                0.0000
     11 O11         -4.6630   0.6537   4.2556 O.2            1 <1>                0.0000
     12 O12         -4.8158   2.0279   2.2041 O.2            1 <1>                0.0000
     13 C13         -5.4797  -0.5497   2.0187 C.3            1 <1>                0.0000
     14 C14         -6.9798  -0.3635   2.2551 C.3            1 <1>                0.0000
     15 C15         -7.7377  -1.4711   1.5697 C.ar           1 <1>                0.0000
     16 C16         -8.1543  -1.3164   0.2607 C.ar           1 <1>                0.0000
     17 C17         -8.8495  -2.3324  -0.3680 C.ar           1 <1>                0.0000
     18 C18         -9.1277  -3.5033   0.3120 C.ar           1 <1>                0.0000
     19 C19         -8.7103  -3.6584   1.6207 C.ar           1 <1>                0.0000
     20 C20         -8.0113  -2.6441   2.2481 C.ar           1 <1>                0.0000
     21 C21          1.6594   1.2138  -1.2987 C.2            1 <1>                0.0000
     22 O22          1.0720   0.5129  -2.0952 O.2            1 <1>                0.0000
     23 N23          2.9432   1.5581  -1.5224 N.am           1 <1>                0.0000
     24 C24          3.6289   1.0856  -2.7277 C.3            1 <1>                0.0000
     25 C25          3.3257   2.0321  -3.8910 C.3            1 <1>                0.0000
     26 O26          3.8855   3.3180  -3.6171 O.3            1 <1>                0.0000
     27 C27          5.1378   1.0533  -2.4765 C.3            1 <1>                0.0000
     28 C28          5.4530   0.0147  -1.3980 C.3            1 <1>                0.0000
     29 C29          6.9619  -0.0177  -1.1468 C.3            1 <1>                0.0000
     30 N30          7.2638  -1.0121  -0.1142 N.pl3          1 <1>                0.0000
     31 H31          6.5463  -1.5240   0.2907 H              1 <1>                0.0000
     32 C32          8.4966  -1.2089   0.2604 C.cat          1 <1>                0.0000
     33 N33          9.5137  -0.4833  -0.3134 N.pl3          1 <1>                0.0000
     34 N34          8.7799  -2.1421   1.2295 N.pl3          1 <1>                0.0000
     35 H35          1.9559   3.6070  -0.0581 H              1 <1>                0.0000
     36 H36          0.4061   3.5907  -0.9334 H              1 <1>                0.0000
     37 H37          0.4231   3.5812   0.8464 H              1 <1>                0.0000
     38 H38          1.4813   1.3388   0.8243 H              1 <1>                0.0000
     39 H39         -0.8580   0.9607  -0.8823 H              1 <1>                0.0000
     40 H40         -3.1283   1.1942   0.5508 H              1 <1>                0.0000
     41 H41         -3.5271  -1.2858   0.6018 H              1 <1>                0.0000
     42 H42         -2.2452  -0.8123  -0.5387 H              1 <1>                0.0000
     43 H43         -1.5651  -2.6228   0.8632 H              1 <1>                0.0000
     44 H44         -2.3678   0.2341   3.2300 H              1 <1>                0.0000
     45 H45         -5.2744  -0.5222   0.9485 H              1 <1>                0.0000
     46 H46         -5.1645  -1.5109   2.4246 H              1 <1>                0.0000
     47 H47         -7.1851  -0.3909   3.3253 H              1 <1>                0.0000
     48 H48         -7.2951   0.5978   1.8492 H              1 <1>                0.0000
     49 H49         -7.9370  -0.4015  -0.2706 H              1 <1>                0.0000
     50 H50         -9.1756  -2.2112  -1.3905 H              1 <1>                0.0000
     51 H51         -9.6714  -4.2968  -0.1790 H              1 <1>                0.0000
     52 H52         -8.9279  -4.5730   2.1521 H              1 <1>                0.0000
     53 H53         -7.6852  -2.7652   3.2705 H              1 <1>                0.0000
     54 H54          3.4130   2.1187  -0.8853 H              1 <1>                0.0000
     55 H55          3.2801   0.0829  -2.9747 H              1 <1>                0.0000
     56 H56          3.7621   1.6335  -4.8069 H              1 <1>                0.0000
     57 H57          2.2465   2.1241  -4.0128 H              1 <1>                0.0000
     58 H58          3.7316   3.9705  -4.3140 H              1 <1>                0.0000
     59 H59          5.6541   0.7874  -3.3989 H              1 <1>                0.0000
     60 H60          5.4718   2.0359  -2.1433 H              1 <1>                0.0000
     61 H61          4.9367   0.2806  -0.4756 H              1 <1>                0.0000
     62 H62          5.1190  -0.9679  -1.7312 H              1 <1>                0.0000
     63 H63          7.4782  -0.2835  -2.0692 H              1 <1>                0.0000
     64 H64          7.2960   0.9650  -0.8137 H              1 <1>                0.0000
     65 H65          9.3138   0.1751  -0.9971 H              1 <1>                0.0000
     66 H66         10.4311  -0.6298  -0.0346 H              1 <1>                0.0000
     67 H67          8.0624  -2.6540   1.6343 H              1 <1>                0.0000
     68 H68          9.6974  -2.2886   1.5083 H              1 <1>                0.0000
@<TRIPOS>BOND
    1    1    2 1     
    2    1   35 1     
    3    1   36 1     
    4    1   37 1     
    5    2    3 1     
    6    2   21 1     
    7    2   38 1     
    8    3    4 am    
    9    3   39 1     
   10    4    5 2     
   11    4    6 1     
   12    6    7 1     
   13    6    9 1     
   14    6   40 1     
   15    7    8 1     
   16    7   41 1     
   17    7   42 1     
   18    8   43 1     
   19    9   10 1     
   20    9   44 1     
   21   10   11 2     
   22   10   12 2     
   23   10   13 1     
   24   13   14 1     
   25   13   45 1     
   26   13   46 1     
   27   14   15 1     
   28   14   47 1     
   29   14   48 1     
   30   15   20 ar    
   31   15   16 ar    
   32   16   17 ar    
   33   16   49 1     
   34   17   18 ar    
   35   17   50 1     
   36   18   19 ar    
   37   18   51 1     
   38   19   20 ar    
   39   19   52 1     
   40   20   53 1     
   41   21   22 2     
   42   21   23 am    
   43   23   24 1     
   44   23   54 1     
   45   24   25 1     
   46   24   27 1     
   47   24   55 1     
   48   25   26 1     
   49   25   56 1     
   50   25   57 1     
   51   26   58 1     
   52   27   28 1     
   53   27   59 1     
   54   27   60 1     
   55   28   29 1     
   56   28   61 1     
   57   28   62 1     
   58   29   30 1     
   59   29   63 1     
   60   29   64 1     
   61   30   31 1     
   62   30   32 ar    
   63   32   33 ar    
   64   32   34 ar    
   65   33   65 1     
   66   33   66 1     
   67   34   67 1     
   68   34   68 1     
@<TRIPOS>SUBSTRUCTURE
      1 ****           1
@<TRIPOS>SET
DONOR_HYDROGENS      STATIC     ATOMS    <user>   **** ""
10 39 43 44 54 58 31 65 66 67 68
ATOM$RED        STATIC     ATOMS    COLORGROUP SYSTEM
10 39 43 44 54 58 31 65 66 67 68
