#       Name:                SHL
#       Creating user name   gbret
#       Creation time:       Fri Sep  9 16:11:08 2016


#       File generated by GOLD software.
#

@<TRIPOS>MOLECULE
SHL
    16    16     1
SMALL
NO_CHARGES


@<TRIPOS>ATOM
      1 C1          -0.0332   2.5061   0.3025 C.3            1 <1>                0.0000
      2 C2          -0.0127   0.9992   0.2942 C.2            1 <1>                0.0000
      3 O3          -0.0096   0.3544  -0.8756 O.3            1 <1>                0.0000
      4 C4           0.0082  -0.9851  -0.9655 C.2            1 <1>                0.0000
      5 C5           0.0241  -1.7569   0.1538 C.2            1 <1>                0.0000
      6 C6           0.0212  -1.0883   1.4605 C.2            1 <1>                0.0000
      7 O7           0.0350  -1.7303   2.4991 O.2            1 <1>                0.0000
      8 C8           0.0075   0.3321   1.4741 C.2            1 <1>                0.0000
      9 O9           0.0047   1.0117   2.6521 O.co2          1 <1>                0.0000
     10 C10          0.0101  -1.6284  -2.2968 C.2            1 <1>                0.0000
     11 O11          0.0262  -2.8475  -2.3867 O.co2          1 <1>                0.0000
     12 O12         -0.0045  -0.9411  -3.3078 O.co2          1 <1>                0.0000
     13 H13          0.9894   2.8834   0.2948 H              1 <1>                0.0000
     14 H14         -0.5603   2.8672  -0.5806 H              1 <1>                0.0000
     15 H15         -0.5434   2.8576   1.1993 H              1 <1>                0.0000
     16 H16          0.0380  -2.8345   0.0831 H              1 <1>                0.0000
@<TRIPOS>BOND
    1    1    2 1     
    2    1   13 1     
    3    1   14 1     
    4    1   15 1     
    5    2    8 2     
    6    2    3 1     
    7    3    4 1     
    8    4    5 2     
    9    4   10 1     
   10    5    6 1     
   11    5   16 1     
   12    6    7 2     
   13    6    8 1     
   14    8    9 ar    
   15   10   11 ar    
   16   10   12 ar    
@<TRIPOS>SUBSTRUCTURE
      1 ****           1
