#       Name:                SHY
#       Creating user name   gbret
#       Creation time:       Fri Sep  9 16:11:49 2016


#       File generated by GOLD software.
#

@<TRIPOS>MOLECULE
SHY
    59    64     1
SMALL
NO_CHARGES


@<TRIPOS>ATOM
      1 N1           6.2553   2.7585   0.9893 N.pl3          1 <1>                0.0000
      2 C2           5.5251   2.6728  -0.1208 C.2            1 <1>                0.0000
      3 N3           5.9388   3.2686  -1.2374 N.pl3          1 <1>                0.0000
      4 H4           6.7721   3.7650  -1.2420 H              1 <1>                0.0000
      5 H5           5.4068   3.2062  -2.0461 H              1 <1>                0.0000
      6 C6           4.2539   1.9155  -0.1135 C.ar           1 <1>                0.0000
      7 C7           4.0909   0.8286   0.7459 C.ar           1 <1>                0.0000
      8 C8           2.9030   0.1269   0.7483 C.ar           1 <1>                0.0000
      9 C9           1.8747   0.4989  -0.0992 C.ar           1 <1>                0.0000
     10 C10          2.0303   1.5755  -0.9542 C.ar           1 <1>                0.0000
     11 C11          3.2112   2.2889  -0.9620 C.ar           1 <1>                0.0000
     12 C12          0.5799  -0.2720  -0.0915 C.3            1 <1>                0.0000
     13 C13         -0.1519  -0.1013  -1.4376 C.3            1 <1>                0.0000
     14 C14         -0.7878  -1.4867  -1.7246 C.3            1 <1>                0.0000
     15 C15         -0.3677  -2.3796  -0.5429 C.3            1 <1>                0.0000
     16 C16          0.1318  -3.7316  -1.0887 C.3            1 <1>                0.0000
     17 C17          1.6452  -3.5471  -1.3170 C.3            1 <1>                0.0000
     18 O18          1.9674  -3.7501  -2.6943 O.3            1 <1>                0.0000
     19 C19          1.9392  -2.0893  -0.9074 C.3            1 <1>                0.0000
     20 N20          0.8475  -1.7239   0.0255 N.4            1 <1>                0.0000
     21 H21          1.0367  -2.0138   0.9733 H              1 <1>                0.0000
     22 C22         -2.2728  -1.2136  -1.6473 C.2            1 <1>                0.0000
     23 O23         -3.1464  -2.0390  -1.8058 O.2            1 <1>                0.0000
     24 N24         -2.4721   0.0815  -1.3761 N.am           1 <1>                0.0000
     25 C25         -3.8085   0.6657  -1.2386 C.3            1 <1>                0.0000
     26 C26         -4.2498   0.5773   0.1996 C.ar           1 <1>                0.0000
     27 C27         -4.9375  -0.5372   0.6429 C.ar           1 <1>                0.0000
     28 C28         -5.3444  -0.6229   1.9613 C.ar           1 <1>                0.0000
     29 C29         -5.0637   0.4090   2.8421 C.ar           1 <1>                0.0000
     30 O30         -5.3477   0.5703   4.1674 O.3            1 <1>                0.0000
     31 C31         -4.4680   1.6144   4.6249 C.3            1 <1>                0.0000
     32 O32         -4.2204   2.3960   3.4412 O.3            1 <1>                0.0000
     33 C33         -4.3706   1.5315   2.3956 C.ar           1 <1>                0.0000
     34 C34         -3.9612   1.6082   1.0742 C.ar           1 <1>                0.0000
     35 C35         -1.3510   0.7993  -1.2400 C.2            1 <1>                0.0000
     36 O36         -1.3037   1.9857  -0.9955 O.2            1 <1>                0.0000
     37 H37          7.0887   3.2549   0.9845 H              1 <1>                0.0000
     38 H38          5.9520   2.3278   1.8038 H              1 <1>                0.0000
     39 H39          4.8930   0.5370   1.4077 H              1 <1>                0.0000
     40 H40          2.7757  -0.7149   1.4128 H              1 <1>                0.0000
     41 H41          1.2240   1.8608  -1.6136 H              1 <1>                0.0000
     42 H42          3.3313   3.1293  -1.6295 H              1 <1>                0.0000
     43 H43         -0.0537   0.0628   0.7299 H              1 <1>                0.0000
     44 H44          0.5078   0.2454  -2.2330 H              1 <1>                0.0000
     45 H45         -0.4807  -1.8979  -2.6862 H              1 <1>                0.0000
     46 H46         -1.1630  -2.4910   0.1941 H              1 <1>                0.0000
     47 H47         -0.0463  -4.5220  -0.3595 H              1 <1>                0.0000
     48 H48         -0.3660  -3.9659  -2.0296 H              1 <1>                0.0000
     49 H49          2.2093  -4.2387  -0.6911 H              1 <1>                0.0000
     50 H50          1.7623  -4.6373  -3.0196 H              1 <1>                0.0000
     51 H51          2.9043  -2.0245  -0.4048 H              1 <1>                0.0000
     52 H52          1.9228  -1.4395  -1.7824 H              1 <1>                0.0000
     53 H53         -3.7817   1.7109  -1.5468 H              1 <1>                0.0000
     54 H54         -4.5105   0.1191  -1.8683 H              1 <1>                0.0000
     55 H55         -5.1575  -1.3424  -0.0424 H              1 <1>                0.0000
     56 H56         -5.8816  -1.4946   2.3047 H              1 <1>                0.0000
     57 H57         -4.9566   2.2197   5.3883 H              1 <1>                0.0000
     58 H58         -3.5384   1.1921   5.0064 H              1 <1>                0.0000
     59 H59         -3.4194   2.4753   0.7265 H              1 <1>                0.0000
@<TRIPOS>BOND
    1    1    2 2     
    2    1   37 1     
    3    1   38 1     
    4    2    3 1     
    5    2    6 1     
    6    3    4 1     
    7    3    5 1     
    8    6   11 ar    
    9    6    7 ar    
   10    7    8 ar    
   11    7   39 1     
   12    8    9 ar    
   13    8   40 1     
   14    9   10 ar    
   15    9   12 1     
   16   10   11 ar    
   17   10   41 1     
   18   11   42 1     
   19   12   20 1     
   20   12   13 1     
   21   12   43 1     
   22   13   35 1     
   23   13   14 1     
   24   13   44 1     
   25   14   15 1     
   26   14   22 1     
   27   14   45 1     
   28   15   20 1     
   29   15   16 1     
   30   15   46 1     
   31   16   17 1     
   32   16   47 1     
   33   16   48 1     
   34   17   18 1     
   35   17   19 1     
   36   17   49 1     
   37   18   50 1     
   38   19   20 1     
   39   19   51 1     
   40   19   52 1     
   41   20   21 1     
   42   22   23 2     
   43   22   24 am    
   44   24   25 1     
   45   24   35 am    
   46   25   26 1     
   47   25   53 1     
   48   25   54 1     
   49   26   34 ar    
   50   26   27 ar    
   51   27   28 ar    
   52   27   55 1     
   53   28   29 ar    
   54   28   56 1     
   55   29   33 ar    
   56   29   30 1     
   57   30   31 1     
   58   31   32 1     
   59   31   57 1     
   60   31   58 1     
   61   32   33 1     
   62   33   34 ar    
   63   34   59 1     
   64   35   36 2     
@<TRIPOS>SUBSTRUCTURE
      1 ****           1
@<TRIPOS>SET
DONOR_HYDROGENS      STATIC     ATOMS    <user>   **** ""
6 37 38 4 5 50 21
ATOM$RED        STATIC     ATOMS    COLORGROUP SYSTEM
6 37 38 4 5 50 21
