#       Name:                SLL
#       Creating user name   gbret
#       Creation time:       Fri Sep  9 16:15:49 2016


#       File generated by GOLD software.
#

@<TRIPOS>MOLECULE
SLL
    34    33     1
SMALL
NO_CHARGES


@<TRIPOS>ATOM
      1 N1          -0.7808   2.8710  -3.7138 N.4            1 <1>                0.0000
      2 H2          -0.7671   1.8621  -3.7194 H              1 <1>                0.0000
      3 H3           0.1658   3.2203  -3.7210 H              1 <1>                0.0000
      4 H4          -1.2688   3.2053  -4.5313 H              1 <1>                0.0000
      5 C5          -1.4684   3.3448  -2.5052 C.3            1 <1>                0.0000
      6 C6          -0.7284   2.8379  -1.2657 C.3            1 <1>                0.0000
      7 C7          -0.8151   1.3115  -1.2086 C.3            1 <1>                0.0000
      8 C8          -0.0751   0.8046   0.0309 C.3            1 <1>                0.0000
      9 C9          -0.1617  -0.7219   0.0880 C.3            1 <1>                0.0000
     10 N10          0.5468  -1.2072   1.2749 N.am           1 <1>                0.0000
     11 C11          0.6030  -2.5289   1.5327 C.2            1 <1>                0.0000
     12 O12          0.0670  -3.3164   0.7821 O.2            1 <1>                0.0000
     13 C13          1.3319  -3.0281   2.7536 C.3            1 <1>                0.0000
     14 C14          1.2452  -4.5545   2.8106 C.3            1 <1>                0.0000
     15 C15          1.9741  -5.0538   4.0315 C.2            1 <1>                0.0000
     16 O16          2.5129  -4.2620   4.7861 O.co2          1 <1>                0.0000
     17 O17          2.0250  -6.2494   4.2647 O.co2          1 <1>                0.0000
     18 C18         -1.4888   4.8516  -2.4969 C.2            1 <1>                0.0000
     19 O19         -0.9780   5.4733  -3.4129 O.co2          1 <1>                0.0000
     20 O20         -2.0162   5.4491  -1.5742 O.co2          1 <1>                0.0000
     21 H21         -2.4910   2.9675  -2.4975 H              1 <1>                0.0000
     22 H22          0.3174   3.1408  -1.3177 H              1 <1>                0.0000
     23 H23         -1.1853   3.2615  -0.3713 H              1 <1>                0.0000
     24 H24         -1.8609   1.0086  -1.1566 H              1 <1>                0.0000
     25 H25         -0.3582   0.8879  -2.1030 H              1 <1>                0.0000
     26 H26          0.9707   1.1075  -0.0211 H              1 <1>                0.0000
     27 H27         -0.5319   1.2282   0.9253 H              1 <1>                0.0000
     28 H28         -1.2075  -1.0247   0.1400 H              1 <1>                0.0000
     29 H29          0.2951  -1.1454  -0.8064 H              1 <1>                0.0000
     30 H30          0.9755  -0.5773   1.8752 H              1 <1>                0.0000
     31 H31          2.3777  -2.7252   2.7015 H              1 <1>                0.0000
     32 H32          0.8750  -2.6045   3.6480 H              1 <1>                0.0000
     33 H33          0.1995  -4.8574   2.8626 H              1 <1>                0.0000
     34 H34          1.7021  -4.9781   1.9162 H              1 <1>                0.0000
@<TRIPOS>BOND
    1    1    2 1     
    2    1    3 1     
    3    1    4 1     
    4    1    5 1     
    5    5    6 1     
    6    5   18 1     
    7    5   21 1     
    8    6    7 1     
    9    6   22 1     
   10    6   23 1     
   11    7    8 1     
   12    7   24 1     
   13    7   25 1     
   14    8    9 1     
   15    8   26 1     
   16    8   27 1     
   17    9   10 1     
   18    9   28 1     
   19    9   29 1     
   20   10   11 am    
   21   10   30 1     
   22   11   12 2     
   23   11   13 1     
   24   13   14 1     
   25   13   31 1     
   26   13   32 1     
   27   14   15 1     
   28   14   33 1     
   29   14   34 1     
   30   15   16 ar    
   31   15   17 ar    
   32   18   19 ar    
   33   18   20 ar    
@<TRIPOS>SUBSTRUCTURE
      1 ****           1
@<TRIPOS>SET
DONOR_HYDROGENS      STATIC     ATOMS    <user>   **** ""
4 2 3 4 30
ATOM$RED        STATIC     ATOMS    COLORGROUP SYSTEM
4 2 3 4 30
