#       Name:                SMK
#       Creating user name   gbret
#       Creation time:       Fri Sep  9 16:17:39 2016


#       File generated by GOLD software.
#

@<TRIPOS>MOLECULE
SMK
    78    81     1
SMALL
NO_CHARGES


@<TRIPOS>ATOM
      1 C1          -3.9379   6.2404  -0.9463 C.3            1 <1>                0.0000
      2 C2          -3.8632   4.7128  -0.9040 C.3            1 <1>                0.0000
      3 C3          -2.5360   4.2844  -0.2747 C.3            1 <1>                0.0000
      4 N4          -2.4985   4.7144   1.1295 N.4            1 <1>                0.0000
      5 H5          -1.6233   4.4318   1.5445 H              1 <1>                0.0000
      6 H6          -2.5842   5.7186   1.1761 H              1 <1>                0.0000
      7 H7          -3.2623   4.2880   1.6322 H              1 <1>                0.0000
      8 C8          -2.4081   2.7844  -0.3443 C.2            1 <1>                0.0000
      9 O9          -2.6576   2.1086   0.6313 O.2            1 <1>                0.0000
     10 N10         -2.0164   2.1940  -1.4908 N.am           1 <1>                0.0000
     11 C11         -1.8921   0.7359  -1.5585 C.3            1 <1>                0.0000
     12 C12         -1.3589   0.3382  -2.9371 C.3            1 <1>                0.0000
     13 C13         -2.5322   0.1058  -3.8912 C.3            1 <1>                0.0000
     14 C14         -2.0052  -0.4115  -5.2312 C.3            1 <1>                0.0000
     15 N15         -3.1318  -0.6346  -6.1472 N.4            1 <1>                0.0000
     16 H16         -3.6245   0.2339  -6.2922 H              1 <1>                0.0000
     17 H17         -2.7843  -0.9758  -7.0310 H              1 <1>                0.0000
     18 H18         -3.7604  -1.3153  -5.7477 H              1 <1>                0.0000
     19 C19         -0.4723   1.4651  -3.4808 C.3            1 <1>                0.0000
     20 C20          0.2503   2.1522  -2.3232 C.3            1 <1>                0.0000
     21 C21          1.1109   1.1211  -1.5993 C.3            1 <1>                0.0000
     22 C22          2.3186   1.8165  -0.9293 C.3            1 <1>                0.0000
     23 C23          2.6723   0.7972   0.1876 C.3            1 <1>                0.0000
     24 C24          1.2907   0.2595   0.6172 C.3            1 <1>                0.0000
     25 N25          0.3546   0.5224  -0.4889 N.am           1 <1>                0.0000
     26 C26         -0.9603   0.2671  -0.4763 C.2            1 <1>                0.0000
     27 O27         -1.4189  -0.3695   0.4486 O.2            1 <1>                0.0000
     28 C28          1.3755  -1.2228   0.8752 C.2            1 <1>                0.0000
     29 O29          0.7117  -1.9925   0.2135 O.2            1 <1>                0.0000
     30 N30          2.1890  -1.6932   1.8414 N.am           1 <1>                0.0000
     31 C31          2.2715  -3.1342   2.0922 C.3            1 <1>                0.0000
     32 C32          3.6029  -3.4596   2.7186 C.ar           1 <1>                0.0000
     33 C33          4.1390  -2.6207   3.6778 C.ar           1 <1>                0.0000
     34 C34          5.3603  -2.9192   4.2524 C.ar           1 <1>                0.0000
     35 C35          6.0452  -4.0569   3.8684 C.ar           1 <1>                0.0000
     36 C36          5.5087  -4.8963   2.9101 C.ar           1 <1>                0.0000
     37 C37          4.2854  -4.6000   2.3385 C.ar           1 <1>                0.0000
     38 C38          1.1628  -3.5457   3.0263 C.ar           1 <1>                0.0000
     39 C39          0.8166  -2.7322   4.0890 C.ar           1 <1>                0.0000
     40 C40         -0.2004  -3.1096   4.9457 C.ar           1 <1>                0.0000
     41 C41         -0.8716  -4.3004   4.7395 C.ar           1 <1>                0.0000
     42 C42         -0.5260  -5.1135   3.6763 C.ar           1 <1>                0.0000
     43 C43          0.4881  -4.7339   2.8171 C.ar           1 <1>                0.0000
     44 H44         -3.1115   6.6282  -1.5418 H              1 <1>                0.0000
     45 H45         -4.8834   6.5456  -1.3946 H              1 <1>                0.0000
     46 H46         -3.8721   6.6356   0.0674 H              1 <1>                0.0000
     47 H47         -4.6896   4.3250  -0.3084 H              1 <1>                0.0000
     48 H48         -3.9290   4.3176  -1.9177 H              1 <1>                0.0000
     49 H49         -1.7109   4.7450  -0.8179 H              1 <1>                0.0000
     50 H50         -1.8169   2.7345  -2.2712 H              1 <1>                0.0000
     51 H51         -2.8728   0.2842  -1.4090 H              1 <1>                0.0000
     52 H52         -0.7732  -0.5770  -2.8508 H              1 <1>                0.0000
     53 H53         -3.2113  -0.6295  -3.4596 H              1 <1>                0.0000
     54 H54         -3.0645   1.0440  -4.0479 H              1 <1>                0.0000
     55 H55         -1.3261   0.3238  -5.6628 H              1 <1>                0.0000
     56 H56         -1.4730  -1.3497  -5.0746 H              1 <1>                0.0000
     57 H57          0.2615   1.0487  -4.1709 H              1 <1>                0.0000
     58 H58         -1.0913   2.1928  -4.0055 H              1 <1>                0.0000
     59 H59          0.8842   2.9501  -2.7102 H              1 <1>                0.0000
     60 H60         -0.4817   2.5679  -1.6307 H              1 <1>                0.0000
     61 H61          1.4409   0.3486  -2.2938 H              1 <1>                0.0000
     62 H62          3.1444   1.9306  -1.6317 H              1 <1>                0.0000
     63 H63          2.0313   2.7787  -0.5053 H              1 <1>                0.0000
     64 H64          3.2933  -0.0070  -0.2070 H              1 <1>                0.0000
     65 H65          3.1682   1.2951   1.0208 H              1 <1>                0.0000
     66 H66          0.9556   0.7756   1.5168 H              1 <1>                0.0000
     67 H67          2.7200  -1.0776   2.3706 H              1 <1>                0.0000
     68 H68          2.1718  -3.6733   1.1501 H              1 <1>                0.0000
     69 H69          3.6039  -1.7319   3.9777 H              1 <1>                0.0000
     70 H70          5.7794  -2.2634   5.0012 H              1 <1>                0.0000
     71 H71          6.9997  -4.2898   4.3170 H              1 <1>                0.0000
     72 H72          6.0440  -5.7850   2.6099 H              1 <1>                0.0000
     73 H73          3.8662  -5.2558   1.5897 H              1 <1>                0.0000
     74 H74          1.3410  -1.8018   4.2500 H              1 <1>                0.0000
     75 H75         -0.4703  -2.4744   5.7764 H              1 <1>                0.0000
     76 H76         -1.6656  -4.5956   5.4093 H              1 <1>                0.0000
     77 H77         -1.0502  -6.0440   3.5154 H              1 <1>                0.0000
     78 H78          0.7581  -5.3692   1.9864 H              1 <1>                0.0000
@<TRIPOS>BOND
    1    1    2 1     
    2    1   44 1     
    3    1   45 1     
    4    1   46 1     
    5    2    3 1     
    6    2   47 1     
    7    2   48 1     
    8    3    4 1     
    9    3    8 1     
   10    3   49 1     
   11    4    5 1     
   12    4    6 1     
   13    4    7 1     
   14    8    9 2     
   15    8   10 am    
   16   10   11 1     
   17   10   50 1     
   18   11   26 1     
   19   11   12 1     
   20   11   51 1     
   21   12   13 1     
   22   12   19 1     
   23   12   52 1     
   24   13   14 1     
   25   13   53 1     
   26   13   54 1     
   27   14   15 1     
   28   14   55 1     
   29   14   56 1     
   30   15   16 1     
   31   15   17 1     
   32   15   18 1     
   33   19   20 1     
   34   19   57 1     
   35   19   58 1     
   36   20   21 1     
   37   20   59 1     
   38   20   60 1     
   39   21   25 1     
   40   21   22 1     
   41   21   61 1     
   42   22   23 1     
   43   22   62 1     
   44   22   63 1     
   45   23   24 1     
   46   23   64 1     
   47   23   65 1     
   48   24   25 1     
   49   24   28 1     
   50   24   66 1     
   51   25   26 am    
   52   26   27 2     
   53   28   29 2     
   54   28   30 am    
   55   30   31 1     
   56   30   67 1     
   57   31   32 1     
   58   31   38 1     
   59   31   68 1     
   60   32   37 ar    
   61   32   33 ar    
   62   33   34 ar    
   63   33   69 1     
   64   34   35 ar    
   65   34   70 1     
   66   35   36 ar    
   67   35   71 1     
   68   36   37 ar    
   69   36   72 1     
   70   37   73 1     
   71   38   43 ar    
   72   38   39 ar    
   73   39   40 ar    
   74   39   74 1     
   75   40   41 ar    
   76   40   75 1     
   77   41   42 ar    
   78   41   76 1     
   79   42   43 ar    
   80   42   77 1     
   81   43   78 1     
@<TRIPOS>SUBSTRUCTURE
      1 ****           1
@<TRIPOS>SET
DONOR_HYDROGENS      STATIC     ATOMS    <user>   **** ""
8 5 6 7 50 16 17 18 67
ATOM$RED        STATIC     ATOMS    COLORGROUP SYSTEM
8 5 6 7 50 16 17 18 67
