#       Name:                SOO
#       Creating user name   gbret
#       Creation time:       Fri Sep  9 16:21:01 2016


#       File generated by GOLD software.
#

@<TRIPOS>MOLECULE
SOO
    64    63     1
SMALL
NO_CHARGES


@<TRIPOS>ATOM
      1 C1           3.8083  12.6873  -1.8784 C.3            1 <1>                0.0000
      2 C2           3.7930  11.1574  -1.8874 C.3            1 <1>                0.0000
      3 C3           2.3535  10.6626  -2.0412 C.3            1 <1>                0.0000
      4 C4           2.3382   9.1327  -2.0502 C.3            1 <1>                0.0000
      5 C5           0.8986   8.6379  -2.2039 C.3            1 <1>                0.0000
      6 C6           0.8836   7.1310  -2.2128 C.2            1 <1>                0.0000
      7 C7           0.1214   6.4686  -1.3476 C.2            1 <1>                0.0000
      8 C8           0.1068   4.9977  -1.3562 C.2            1 <1>                0.0000
      9 O9           0.7920   4.3872  -2.1550 O.2            1 <1>                0.0000
     10 S10         -0.9031   4.1200  -0.2098 S.3            1 <1>                0.0000
     11 C11         -0.5139   2.4179  -0.6870 C.3            1 <1>                0.0000
     12 C12         -1.2984   1.4479   0.1986 C.3            1 <1>                0.0000
     13 N13         -0.9834   0.0703  -0.1876 N.am           1 <1>                0.0000
     14 C14         -1.5621  -0.9603   0.4601 C.2            1 <1>                0.0000
     15 O15         -2.3436  -0.7472   1.3628 O.2            1 <1>                0.0000
     16 C16         -1.2380  -2.3774   0.0628 C.3            1 <1>                0.0000
     17 C17         -2.0226  -3.3475   0.9484 C.3            1 <1>                0.0000
     18 N18         -1.7076  -4.7251   0.5621 N.am           1 <1>                0.0000
     19 C19         -2.2862  -5.7556   1.2099 C.2            1 <1>                0.0000
     20 O20         -2.9964  -5.5462   2.1705 O.2            1 <1>                0.0000
     21 C21         -2.0508  -7.1682   0.7406 C.3            1 <1>                0.0000
     22 O22         -1.3251  -7.1465  -0.4903 O.3            1 <1>                0.0000
     23 C23         -1.2437  -7.9282   1.7951 C.3            1 <1>                0.0000
     24 C24          0.0406  -7.1575   2.1075 C.3            1 <1>                0.0000
     25 C25         -2.0767  -8.0696   3.0707 C.3            1 <1>                0.0000
     26 C26         -0.8879  -9.3173   1.2617 C.3            1 <1>                0.0000
     27 O27         -0.1341 -10.0271   2.2466 O.3            1 <1>                0.0000
     28 P28          0.4096 -11.5259   2.0226 P.3            1 <1>                0.0000
     29 O29          1.4647 -11.5310   0.8645 O.co2          1 <1>                0.0000
     30 O30          1.0797 -12.0409   3.3418 O.co2          1 <1>                0.0000
     31 O31         -0.7864 -12.4641   1.6436 O.co2          1 <1>                0.0000
     32 H32          4.8339  13.0398  -1.7689 H              1 <1>                0.0000
     33 H33          3.3940  13.0603  -2.8150 H              1 <1>                0.0000
     34 H34          3.2079  13.0517  -1.0449 H              1 <1>                0.0000
     35 H35          4.3935  10.7930  -2.7209 H              1 <1>                0.0000
     36 H36          4.2074  10.7844  -0.9508 H              1 <1>                0.0000
     37 H37          1.7530  11.0271  -1.2076 H              1 <1>                0.0000
     38 H38          1.9391  11.0356  -2.9778 H              1 <1>                0.0000
     39 H39          2.9386   8.7683  -2.8837 H              1 <1>                0.0000
     40 H40          2.7525   8.7597  -1.1135 H              1 <1>                0.0000
     41 H41          0.2982   9.0024  -1.3704 H              1 <1>                0.0000
     42 H42          0.4843   9.0109  -3.1406 H              1 <1>                0.0000
     43 H43          1.4918   6.5891  -2.9219 H              1 <1>                0.0000
     44 H44         -0.4868   7.0105  -0.6385 H              1 <1>                0.0000
     45 H45         -0.7889   2.2611  -1.7300 H              1 <1>                0.0000
     46 H46          0.5544   2.2409  -0.5623 H              1 <1>                0.0000
     47 H47         -1.0235   1.6047   1.2417 H              1 <1>                0.0000
     48 H48         -2.3667   1.6249   0.0739 H              1 <1>                0.0000
     49 H49         -0.3584  -0.1002  -0.9096 H              1 <1>                0.0000
     50 H50         -1.5130  -2.5342  -0.9803 H              1 <1>                0.0000
     51 H51         -0.1698  -2.5545   0.1875 H              1 <1>                0.0000
     52 H52         -1.7476  -3.1907   1.9914 H              1 <1>                0.0000
     53 H53         -3.0908  -3.1704   0.8237 H              1 <1>                0.0000
     54 H54         -1.0825  -4.8955  -0.1598 H              1 <1>                0.0000
     55 H55         -3.0090  -7.6651   0.5887 H              1 <1>                0.0000
     56 H56         -0.4603  -6.7182  -0.4295 H              1 <1>                0.0000
     57 H57         -0.2129  -6.1678   2.4875 H              1 <1>                0.0000
     58 H58          0.6156  -7.6989   2.8587 H              1 <1>                0.0000
     59 H59          0.6340  -7.0568   1.1987 H              1 <1>                0.0000
     60 H60         -3.0407  -8.5164   2.8274 H              1 <1>                0.0000
     61 H61         -1.5493  -8.7072   3.7802 H              1 <1>                0.0000
     62 H62         -2.2335  -7.0858   3.5131 H              1 <1>                0.0000
     63 H63         -1.8029  -9.8664   1.0391 H              1 <1>                0.0000
     64 H64         -0.2945  -9.2166   0.3529 H              1 <1>                0.0000
@<TRIPOS>BOND
    1    1    2 1     
    2    1   32 1     
    3    1   33 1     
    4    1   34 1     
    5    2    3 1     
    6    2   35 1     
    7    2   36 1     
    8    3    4 1     
    9    3   37 1     
   10    3   38 1     
   11    4    5 1     
   12    4   39 1     
   13    4   40 1     
   14    5    6 1     
   15    5   41 1     
   16    5   42 1     
   17    6    7 2     
   18    6   43 1     
   19    7    8 1     
   20    7   44 1     
   21    8    9 2     
   22    8   10 1     
   23   10   11 1     
   24   11   12 1     
   25   11   45 1     
   26   11   46 1     
   27   12   13 1     
   28   12   47 1     
   29   12   48 1     
   30   13   14 am    
   31   13   49 1     
   32   14   15 2     
   33   14   16 1     
   34   16   17 1     
   35   16   50 1     
   36   16   51 1     
   37   17   18 1     
   38   17   52 1     
   39   17   53 1     
   40   18   19 am    
   41   18   54 1     
   42   19   20 2     
   43   19   21 1     
   44   21   22 1     
   45   21   23 1     
   46   21   55 1     
   47   22   56 1     
   48   23   24 1     
   49   23   25 1     
   50   23   26 1     
   51   24   57 1     
   52   24   58 1     
   53   24   59 1     
   54   25   60 1     
   55   25   61 1     
   56   25   62 1     
   57   26   27 1     
   58   26   63 1     
   59   26   64 1     
   60   27   28 1     
   61   28   29 ar    
   62   28   30 ar    
   63   28   31 ar    
@<TRIPOS>SUBSTRUCTURE
      1 ****           1
@<TRIPOS>SET
DONOR_HYDROGENS      STATIC     ATOMS    <user>   **** ""
3 49 54 56
ATOM$RED        STATIC     ATOMS    COLORGROUP SYSTEM
3 49 54 56
