#       Name:                STF
#       Creating user name   gbret
#       Creation time:       Fri Sep  9 16:29:00 2016


#       File generated by GOLD software.
#

@<TRIPOS>MOLECULE
STF
    26    27     1
SMALL
NO_CHARGES


@<TRIPOS>ATOM
      1 F1           1.8819  -2.1595  -3.9893 F              1 <1>                0.0000
      2 C2           1.8629  -0.7606  -3.9816 C.3            1 <1>                0.0000
      3 F3           3.1754  -0.2764  -3.9915 F              1 <1>                0.0000
      4 F4           1.1863  -0.2972  -5.1150 F              1 <1>                0.0000
      5 C5           1.1575  -0.2746  -2.7417 C.ar           1 <1>                0.0000
      6 C6          -0.2092  -0.0680  -2.7601 C.ar           1 <1>                0.0000
      7 C7          -0.8562   0.3778  -1.6228 C.ar           1 <1>                0.0000
      8 C8          -0.1366   0.6166  -0.4669 C.ar           1 <1>                0.0000
      9 C9          -0.8419   1.1030   0.7728 C.3            1 <1>                0.0000
     10 C10         -1.2935  -0.0975   1.6069 C.3            1 <1>                0.0000
     11 S11          0.1368  -0.9140   2.3950 S.3            1 <1>                0.0000
     12 C12         -0.4408  -0.6045   4.0434 C.2            1 <1>                0.0000
     13 S13          0.3682  -1.0762   5.5359 S.3            1 <1>                0.0000
     14 N14         -1.5830   0.0420   3.9489 N.2            1 <1>                0.0000
     15 C15         -2.1128   0.3533   2.7984 C.2            1 <1>                0.0000
     16 O16         -3.1668   0.9497   2.6922 O.2            1 <1>                0.0000
     17 C17          1.2299   0.4087  -0.4481 C.ar           1 <1>                0.0000
     18 C18          1.8764  -0.0408  -1.5843 C.ar           1 <1>                0.0000
     19 H19         -0.7714  -0.2546  -3.6632 H              1 <1>                0.0000
     20 H20         -1.9239   0.5399  -1.6374 H              1 <1>                0.0000
     21 H21         -0.1607   1.7182   1.3606 H              1 <1>                0.0000
     22 H22         -1.7116   1.6950   0.4874 H              1 <1>                0.0000
     23 H23         -1.8562  -0.8023   0.9947 H              1 <1>                0.0000
     24 H24         -0.5469  -0.5691   6.4812 H              1 <1>                0.0000
     25 H25          1.7920   0.5948   0.4551 H              1 <1>                0.0000
     26 H26          2.9440  -0.2032  -1.5696 H              1 <1>                0.0000
@<TRIPOS>BOND
    1    1    2 1     
    2    2    3 1     
    3    2    4 1     
    4    2    5 1     
    5    5   18 ar    
    6    5    6 ar    
    7    6    7 ar    
    8    6   19 1     
    9    7    8 ar    
   10    7   20 1     
   11    8    9 1     
   12    8   17 ar    
   13    9   10 1     
   14    9   21 1     
   15    9   22 1     
   16   10   15 1     
   17   10   11 1     
   18   10   23 1     
   19   11   12 1     
   20   12   13 1     
   21   12   14 2     
   22   13   24 1     
   23   14   15 1     
   24   15   16 2     
   25   17   18 ar    
   26   17   25 1     
   27   18   26 1     
@<TRIPOS>SUBSTRUCTURE
      1 ****           1
