#       Name:                SUZ
#       Creating user name   gbret
#       Creation time:       Fri Sep  9 16:31:55 2016


#       File generated by GOLD software.
#

@<TRIPOS>MOLECULE
SUZ
    41    43     1
SMALL
NO_CHARGES


@<TRIPOS>ATOM
      1 C1          -2.0333   3.3543  -0.7734 C.3            1 <1>                0.0000
      2 C2          -1.9904   1.9541  -0.2180 C.2            1 <1>                0.0000
      3 C3          -3.0616   1.2061   0.1049 C.2            1 <1>                0.0000
      4 C4          -4.4969   1.6435  -0.0351 C.3            1 <1>                0.0000
      5 C5          -5.0441   1.1569  -1.3522 C.2            1 <1>                0.0000
      6 O6          -4.3344   0.5145  -2.1073 O.co2          1 <1>                0.0000
      7 O7          -6.1966   1.4057  -1.6628 O.co2          1 <1>                0.0000
      8 C8          -2.6243  -0.0975   0.6126 C.ar           1 <1>                0.0000
      9 C9          -3.3234  -1.2163   1.0739 C.ar           1 <1>                0.0000
     10 C10         -2.6306  -2.3317   1.5007 C.ar           1 <1>                0.0000
     11 F11         -3.3093  -3.4116   1.9461 F              1 <1>                0.0000
     12 C12         -1.2425  -2.3535   1.4757 C.ar           1 <1>                0.0000
     13 C13         -0.5344  -1.2584   1.0235 C.ar           1 <1>                0.0000
     14 C14         -1.2141  -0.1258   0.5901 C.ar           1 <1>                0.0000
     15 C15         -0.7733   1.1792   0.0540 C.2            1 <1>                0.0000
     16 C16          0.5141   1.5850  -0.1481 C.2            1 <1>                0.0000
     17 C17          1.6125   0.6164  -0.0518 C.ar           1 <1>                0.0000
     18 C18          1.4961  -0.6426  -0.6540 C.ar           1 <1>                0.0000
     19 C19          2.5325  -1.5462  -0.5586 C.ar           1 <1>                0.0000
     20 C20          3.6860  -1.2123   0.1305 C.ar           1 <1>                0.0000
     21 C21          3.8093   0.0299   0.7292 C.ar           1 <1>                0.0000
     22 C22          2.7854   0.9480   0.6379 C.ar           1 <1>                0.0000
     23 S23          5.0045  -2.3754   0.2466 S.o            1 <1>                0.0000
     24 C24          6.0114  -1.9980  -1.2143 C.3            1 <1>                0.0000
     25 O25          5.6945  -1.9605   1.4175 O.2            1 <1>                0.0000
     26 H26         -1.0168   3.7088  -0.9441 H              1 <1>                0.0000
     27 H27         -2.5812   3.3548  -1.7157 H              1 <1>                0.0000
     28 H28         -2.5329   4.0122  -0.0623 H              1 <1>                0.0000
     29 H29         -5.0859   1.2236   0.7804 H              1 <1>                0.0000
     30 H30         -4.5503   2.7316   0.0009 H              1 <1>                0.0000
     31 H31         -4.4032  -1.2083   1.0969 H              1 <1>                0.0000
     32 H32         -0.7135  -3.2327   1.8125 H              1 <1>                0.0000
     33 H33          0.5452  -1.2812   1.0068 H              1 <1>                0.0000
     34 H34          0.7245   2.6189  -0.3789 H              1 <1>                0.0000
     35 H35          0.5967  -0.9049  -1.1913 H              1 <1>                0.0000
     36 H36          2.4445  -2.5175  -1.0223 H              1 <1>                0.0000
     37 H37          4.7125   0.2820   1.2651 H              1 <1>                0.0000
     38 H38          2.8832   1.9166   1.1056 H              1 <1>                0.0000
     39 H39          6.3574  -0.9658  -1.1603 H              1 <1>                0.0000
     40 H40          6.8706  -2.6680  -1.2463 H              1 <1>                0.0000
     41 H41          5.4113  -2.1335  -2.1140 H              1 <1>                0.0000
@<TRIPOS>BOND
    1    1    2 1     
    2    1   26 1     
    3    1   27 1     
    4    1   28 1     
    5    2   15 1     
    6    2    3 2     
    7    3    4 1     
    8    3    8 1     
    9    4    5 1     
   10    4   29 1     
   11    4   30 1     
   12    5    6 ar    
   13    5    7 ar    
   14    8   14 ar    
   15    8    9 ar    
   16    9   10 ar    
   17    9   31 1     
   18   10   11 1     
   19   10   12 ar    
   20   12   13 ar    
   21   12   32 1     
   22   13   14 ar    
   23   13   33 1     
   24   14   15 1     
   25   15   16 2     
   26   16   17 1     
   27   16   34 1     
   28   17   22 ar    
   29   17   18 ar    
   30   18   19 ar    
   31   18   35 1     
   32   19   20 ar    
   33   19   36 1     
   34   20   21 ar    
   35   20   23 1     
   36   21   22 ar    
   37   21   37 1     
   38   22   38 1     
   39   23   24 1     
   40   23   25 2     
   41   24   39 1     
   42   24   40 1     
   43   24   41 1     
@<TRIPOS>SUBSTRUCTURE
      1 ****           1
