#       Name:                SYE
#       Creating user name   gbret
#       Creation time:       Fri Sep  9 16:35:57 2016


#       File generated by GOLD software.
#

@<TRIPOS>MOLECULE
SYE
    23    24     1
SMALL
NO_CHARGES


@<TRIPOS>ATOM
      1 O1          -0.9018  -1.4097  -3.5736 O.co2          1 <1>                0.0000
      2 P2          -0.9231   0.1568  -3.5650 P.3            1 <1>                0.0000
      3 O3           0.5467   0.6991  -3.5761 O.co2          1 <1>                0.0000
      4 O4          -1.6808   0.6758  -4.8342 O.co2          1 <1>                0.0000
      5 C5          -1.7764   0.7447  -2.0651 C.3            1 <1>                0.0000
      6 C6          -1.0475   0.2455  -0.8442 C.ar           1 <1>                0.0000
      7 C7          -1.4048  -0.9850  -0.2970 C.ar           1 <1>                0.0000
      8 C8          -0.7552  -1.4533   0.8094 C.ar           1 <1>                0.0000
      9 C9           0.2680  -0.6613   1.3637 C.ar           1 <1>                0.0000
     10 C10          0.9803  -1.0773   2.5002 C.ar           1 <1>                0.0000
     11 C11          1.9633  -0.2830   3.0062 C.ar           1 <1>                0.0000
     12 C12          2.2727   0.9386   2.4111 C.ar           1 <1>                0.0000
     13 C13          1.6024   1.3727   1.3094 C.ar           1 <1>                0.0000
     14 C14          0.5808   0.5803   0.7570 C.ar           1 <1>                0.0000
     15 N15         -0.0905   0.9780  -0.3284 N.ar           1 <1>                0.0000
     16 H16         -1.7911   1.8346  -2.0591 H              1 <1>                0.0000
     17 H17         -2.7989   0.3675  -2.0574 H              1 <1>                0.0000
     18 H18         -2.1950  -1.5677  -0.7469 H              1 <1>                0.0000
     19 H19         -1.0193  -2.4047   1.2469 H              1 <1>                0.0000
     20 H20          0.7493  -2.0218   2.9703 H              1 <1>                0.0000
     21 H21          2.5104  -0.6036   3.8805 H              1 <1>                0.0000
     22 H22          3.0568   1.5508   2.8315 H              1 <1>                0.0000
     23 H23          1.8542   2.3224   0.8609 H              1 <1>                0.0000
@<TRIPOS>BOND
    1    1    2 ar    
    2    2    3 ar    
    3    2    4 ar    
    4    2    5 1     
    5    5    6 1     
    6    5   16 1     
    7    5   17 1     
    8    6   15 ar    
    9    6    7 ar    
   10    7    8 ar    
   11    7   18 1     
   12    8    9 ar    
   13    8   19 1     
   14    9   14 ar    
   15    9   10 ar    
   16   10   11 ar    
   17   10   20 1     
   18   11   12 ar    
   19   11   21 1     
   20   12   13 ar    
   21   12   22 1     
   22   13   14 ar    
   23   13   23 1     
   24   14   15 ar    
@<TRIPOS>SUBSTRUCTURE
      1 ****           1
