#       Name:                T5X
#       Creating user name   gbret
#       Creation time:       Fri Sep  9 16:42:59 2016


#       File generated by GOLD software.
#

@<TRIPOS>MOLECULE
T5X
    65    66     1
SMALL
NO_CHARGES


@<TRIPOS>ATOM
      1 C1          -0.3662   3.0153  -0.9544 C.3            1 <1>                0.0000
      2 C2          -0.6616   1.5404  -0.8634 C.2            1 <1>                0.0000
      3 C3          -0.5142   0.7083  -1.8987 C.2            1 <1>                0.0000
      4 C4          -0.0459   1.0865  -3.2803 C.3            1 <1>                0.0000
      5 C5           1.4776   0.9653  -3.3533 C.3            1 <1>                0.0000
      6 O6           1.9217   1.3239  -4.6634 O.3            1 <1>                0.0000
      7 P7           3.4719   1.3107  -5.0980 P.3            1 <1>                0.0000
      8 O8           4.2429   2.3765  -4.2877 O.co2          1 <1>                0.0000
      9 O9           4.0735  -0.0844  -4.8175 O.co2          1 <1>                0.0000
     10 O10          3.5915   1.6407  -6.6692 O.3            1 <1>                0.0000
     11 P11          4.7309   1.3953  -7.7800 P.3            1 <1>                0.0000
     12 O12          4.6625  -0.0880  -8.2794 O.co2          1 <1>                0.0000
     13 O13          4.4992   2.3646  -8.9888 O.co2          1 <1>                0.0000
     14 O14          6.1398   1.6706  -7.1525 O.co2          1 <1>                0.0000
     15 S15         -0.9641  -0.9088  -1.3631 S.3            1 <1>                0.0000
     16 C16         -1.3057  -0.3054   0.1997 C.2            1 <1>                0.0000
     17 N17         -1.0812   0.9644   0.2451 N.pl3          1 <1>                0.0000
     18 C18         -1.2941   1.7345   1.4730 C.3            1 <1>                0.0000
     19 C19          0.0313   2.2304   1.9912 C.ar           1 <1>                0.0000
     20 C20          0.8323   1.4223   2.7742 C.ar           1 <1>                0.0000
     21 N21          1.9919   1.8914   3.2126 N.ar           1 <1>                0.0000
     22 C22          2.3876   3.1121   2.9125 C.ar           1 <1>                0.0000
     23 C23          3.7142   3.6012   3.4343 C.3            1 <1>                0.0000
     24 N24          1.6560   3.9167   2.1687 N.ar           1 <1>                0.0000
     25 C25          0.4828   3.5161   1.6872 C.ar           1 <1>                0.0000
     26 N26         -0.2839   4.3648   0.9054 N.pl3          1 <1>                0.0000
     27 C27         -1.7924  -1.1373   1.3582 C.3            1 <1>                0.0000
     28 O28         -0.9972  -0.8582   2.5123 O.3            1 <1>                0.0000
     29 C29         -3.2548  -0.7966   1.6520 C.3            1 <1>                0.0000
     30 O30         -4.0707  -1.2147   0.5559 O.3            1 <1>                0.0000
     31 C31         -1.6755  -2.6214   1.0050 C.3            1 <1>                0.0000
     32 O32         -0.3099  -2.9393   0.7295 O.3            1 <1>                0.0000
     33 C33         -2.1685  -3.4660   2.1817 C.3            1 <1>                0.0000
     34 O34         -3.5738  -3.2710   2.3522 O.3            1 <1>                0.0000
     35 C35         -1.8890  -4.9438   1.9011 C.3            1 <1>                0.0000
     36 O36         -2.2421  -5.7213   3.0469 O.3            1 <1>                0.0000
     37 P37         -2.0792  -7.3220   3.1046 P.3            1 <1>                0.0000
     38 O38         -0.5601  -7.6957   3.0211 O.co2          1 <1>                0.0000
     39 O39         -2.6761  -7.8596   4.4497 O.co2          1 <1>                0.0000
     40 O40         -2.8430  -7.9684   1.8991 O.co2          1 <1>                0.0000
     41 H41          0.5271   3.2435  -0.3728 H              1 <1>                0.0000
     42 H42         -0.2011   3.2892  -1.9964 H              1 <1>                0.0000
     43 H43         -1.2108   3.5801  -0.5596 H              1 <1>                0.0000
     44 H44         -0.4990   0.4187  -4.0130 H              1 <1>                0.0000
     45 H45         -0.3393   2.1141  -3.4949 H              1 <1>                0.0000
     46 H46          1.9307   1.6331  -2.6206 H              1 <1>                0.0000
     47 H47          1.7711  -0.0623  -3.1388 H              1 <1>                0.0000
     48 H48         -1.9424   2.5848   1.2608 H              1 <1>                0.0000
     49 H49         -1.7630   1.0987   2.2240 H              1 <1>                0.0000
     50 H50          0.5176   0.4205   3.0264 H              1 <1>                0.0000
     51 H51          4.4980   3.3612   2.7158 H              1 <1>                0.0000
     52 H52          3.6720   4.6807   3.5789 H              1 <1>                0.0000
     53 H53          3.9319   3.1154   4.3854 H              1 <1>                0.0000
     54 H54         -1.1419   4.0674   0.5645 H              1 <1>                0.0000
     55 H55          0.0374   5.2565   0.6990 H              1 <1>                0.0000
     56 H56         -0.0565  -1.0511   2.3977 H              1 <1>                0.0000
     57 H57         -3.5727  -1.3113   2.5587 H              1 <1>                0.0000
     58 H58         -3.3563   0.2798   1.7906 H              1 <1>                0.0000
     59 H59         -5.0125  -1.0297   0.6737 H              1 <1>                0.0000
     60 H60         -2.2828  -2.8344   0.1253 H              1 <1>                0.0000
     61 H61          0.2895  -2.7742   1.4702 H              1 <1>                0.0000
     62 H62         -1.6469  -3.1636   3.0897 H              1 <1>                0.0000
     63 H63         -4.1018  -3.5200   1.5813 H              1 <1>                0.0000
     64 H64         -2.4799  -5.2692   1.0450 H              1 <1>                0.0000
     65 H65         -0.8294  -5.0783   1.6834 H              1 <1>                0.0000
@<TRIPOS>BOND
    1    1    2 1     
    2    1   41 1     
    3    1   42 1     
    4    1   43 1     
    5    2   17 1     
    6    2    3 2     
    7    3    4 1     
    8    3   15 1     
    9    4    5 1     
   10    4   44 1     
   11    4   45 1     
   12    5    6 1     
   13    5   46 1     
   14    5   47 1     
   15    6    7 1     
   16    7    8 ar    
   17    7    9 ar    
   18    7   10 1     
   19   10   11 1     
   20   11   12 ar    
   21   11   13 ar    
   22   11   14 ar    
   23   15   16 1     
   24   16   17 2     
   25   16   27 1     
   26   17   18 1     
   27   18   19 1     
   28   18   48 1     
   29   18   49 1     
   30   19   25 ar    
   31   19   20 ar    
   32   20   21 ar    
   33   20   50 1     
   34   21   22 ar    
   35   22   23 1     
   36   22   24 ar    
   37   23   51 1     
   38   23   52 1     
   39   23   53 1     
   40   24   25 ar    
   41   25   26 1     
   42   26   54 1     
   43   26   55 1     
   44   27   28 1     
   45   27   29 1     
   46   27   31 1     
   47   28   56 1     
   48   29   30 1     
   49   29   57 1     
   50   29   58 1     
   51   30   59 1     
   52   31   32 1     
   53   31   33 1     
   54   31   60 1     
   55   32   61 1     
   56   33   34 1     
   57   33   35 1     
   58   33   62 1     
   59   34   63 1     
   60   35   36 1     
   61   35   64 1     
   62   35   65 1     
   63   36   37 1     
   64   37   38 ar    
   65   37   39 ar    
   66   37   40 ar    
@<TRIPOS>SUBSTRUCTURE
      1 ****           1
@<TRIPOS>SET
DONOR_HYDROGENS      STATIC     ATOMS    <user>   **** ""
6 54 55 56 59 61 63
ATOM$RED        STATIC     ATOMS    COLORGROUP SYSTEM
6 54 55 56 59 61 63
