#       Name:                T75
#       Creating user name   gbret
#       Creation time:       Fri Sep  9 16:44:01 2016


#       File generated by GOLD software.
#

@<TRIPOS>MOLECULE
T75
    50    53     1
SMALL
NO_CHARGES


@<TRIPOS>ATOM
      1 C1          -1.3612   3.7146   5.2944 C.3            1 <1>                0.0000
      2 C2          -1.5506   2.2064   5.1200 C.3            1 <1>                0.0000
      3 C3          -0.9234   1.7682   3.8216 C.2            1 <1>                0.0000
      4 N4           0.2978   1.3776   3.6953 N.2            1 <1>                0.0000
      5 C5           0.7009   1.0239   2.4867 C.2            1 <1>                0.0000
      6 C6          -0.2768   1.1327   1.5286 C.2            1 <1>                0.0000
      7 S7          -1.7384   1.7159   2.3209 S.3            1 <1>                0.0000
      8 C8          -0.1312   0.8134   0.0953 C.ar           1 <1>                0.0000
      9 C9           0.9704   1.2790  -0.6382 C.ar           1 <1>                0.0000
     10 C10          1.0699   0.9593  -1.9741 C.ar           1 <1>                0.0000
     11 N11          0.1473   0.2251  -2.5684 N.ar           1 <1>                0.0000
     12 C12         -0.9097  -0.2364  -1.9168 C.ar           1 <1>                0.0000
     13 N13         -1.8534  -1.0074  -2.5930 N.am           1 <1>                0.0000
     14 C14         -1.6389  -1.3636  -3.8750 C.2            1 <1>                0.0000
     15 O15         -0.6659  -0.9411  -4.4685 O.2            1 <1>                0.0000
     16 C16         -2.5870  -2.2678  -4.5593 C.ar           1 <1>                0.0000
     17 C17         -3.7085  -2.7501  -3.8825 C.ar           1 <1>                0.0000
     18 C18         -4.5896  -3.5933  -4.5272 C.ar           1 <1>                0.0000
     19 C19         -4.3637  -3.9611  -5.8417 C.ar           1 <1>                0.0000
     20 C20         -3.2538  -3.4871  -6.5183 C.ar           1 <1>                0.0000
     21 C21         -2.3678  -2.6386  -5.8872 C.ar           1 <1>                0.0000
     22 C22         -1.0846   0.0338  -0.5674 C.ar           1 <1>                0.0000
     23 C23          2.0754   0.5552   2.1943 C.ar           1 <1>                0.0000
     24 C24          2.2776  -0.5473   1.3641 C.ar           1 <1>                0.0000
     25 C25          3.5600  -0.9791   1.0955 C.ar           1 <1>                0.0000
     26 C26          4.6445  -0.3211   1.6482 C.ar           1 <1>                0.0000
     27 C27          4.4505   0.7726   2.4725 C.ar           1 <1>                0.0000
     28 C28          5.6371   1.4836   3.0704 C.3            1 <1>                0.0000
     29 C29          3.1727   1.2180   2.7433 C.ar           1 <1>                0.0000
     30 H30         -0.2966   3.9479   5.3082 H              1 <1>                0.0000
     31 H31         -1.8373   4.2388   4.4658 H              1 <1>                0.0000
     32 H32         -1.8149   4.0315   6.2335 H              1 <1>                0.0000
     33 H33         -1.0745   1.6822   5.9486 H              1 <1>                0.0000
     34 H34         -2.6152   1.9731   5.1062 H              1 <1>                0.0000
     35 H35          1.7303   1.8805  -0.1616 H              1 <1>                0.0000
     36 H36          1.9153   1.3150  -2.5443 H              1 <1>                0.0000
     37 H37         -2.6645  -1.2878  -2.1409 H              1 <1>                0.0000
     38 H38         -3.8858  -2.4640  -2.8562 H              1 <1>                0.0000
     39 H39         -5.4576  -3.9674  -4.0045 H              1 <1>                0.0000
     40 H40         -5.0566  -4.6215  -6.3419 H              1 <1>                0.0000
     41 H41         -3.0830  -3.7783  -7.5442 H              1 <1>                0.0000
     42 H42         -1.5018  -2.2692  -6.4164 H              1 <1>                0.0000
     43 H43         -1.9474  -0.3445  -0.0393 H              1 <1>                0.0000
     44 H44          1.4318  -1.0622   0.9328 H              1 <1>                0.0000
     45 H45          3.7178  -1.8326   0.4529 H              1 <1>                0.0000
     46 H46          5.6466  -0.6630   1.4353 H              1 <1>                0.0000
     47 H47          5.9618   2.2775   2.3977 H              1 <1>                0.0000
     48 H48          5.3564   1.9140   4.0316 H              1 <1>                0.0000
     49 H49          6.4516   0.7736   3.2141 H              1 <1>                0.0000
     50 H50          3.0224   2.0720   3.3871 H              1 <1>                0.0000
@<TRIPOS>BOND
    1    1    2 1     
    2    1   30 1     
    3    1   31 1     
    4    1   32 1     
    5    2    3 1     
    6    2   33 1     
    7    2   34 1     
    8    3    7 1     
    9    3    4 2     
   10    4    5 1     
   11    5    6 2     
   12    5   23 1     
   13    6    7 1     
   14    6    8 1     
   15    8   22 ar    
   16    8    9 ar    
   17    9   10 ar    
   18    9   35 1     
   19   10   11 ar    
   20   10   36 1     
   21   11   12 ar    
   22   12   13 1     
   23   12   22 ar    
   24   13   14 am    
   25   13   37 1     
   26   14   15 2     
   27   14   16 1     
   28   16   21 ar    
   29   16   17 ar    
   30   17   18 ar    
   31   17   38 1     
   32   18   19 ar    
   33   18   39 1     
   34   19   20 ar    
   35   19   40 1     
   36   20   21 ar    
   37   20   41 1     
   38   21   42 1     
   39   22   43 1     
   40   23   29 ar    
   41   23   24 ar    
   42   24   25 ar    
   43   24   44 1     
   44   25   26 ar    
   45   25   45 1     
   46   26   27 ar    
   47   26   46 1     
   48   27   28 1     
   49   27   29 ar    
   50   28   47 1     
   51   28   48 1     
   52   28   49 1     
   53   29   50 1     
@<TRIPOS>SUBSTRUCTURE
      1 ****           1
@<TRIPOS>SET
DONOR_HYDROGENS      STATIC     ATOMS    <user>   **** ""
1 37
ATOM$RED        STATIC     ATOMS    COLORGROUP SYSTEM
1 37
