#       Name:                TCE
#       Creating user name   gbret
#       Creation time:       Fri Sep  9 16:50:12 2016


#       File generated by GOLD software.
#

@<TRIPOS>MOLECULE
TCE
    28    27     1
SMALL
NO_CHARGES


@<TRIPOS>ATOM
      1 O1           3.6822  -1.4448  -0.3783 O.co2          1 <1>                0.0000
      2 C2           3.6656  -0.2257  -0.3716 C.2            1 <1>                0.0000
      3 O3           4.7131   0.3982  -0.3782 O.co2          1 <1>                0.0000
      4 C4           2.3505   0.5100  -0.3613 C.3            1 <1>                0.0000
      5 C5           1.2011  -0.4999  -0.3614 C.3            1 <1>                0.0000
      6 P6          -0.3898   0.3900  -0.3490 P.3            1 <1>                0.0000
      7 C7          -1.5637  -0.9256  -0.8121 C.3            1 <1>                0.0000
      8 C8          -1.7123  -0.9639  -2.3344 C.3            1 <1>                0.0000
      9 C9          -2.6826  -2.0515  -2.7172 C.2            1 <1>                0.0000
     10 O10         -3.2068  -2.7329  -1.8527 O.co2          1 <1>                0.0000
     11 O11         -2.9436  -2.2500  -3.8915 O.co2          1 <1>                0.0000
     12 C12         -0.7088   0.5713   1.4367 C.3            1 <1>                0.0000
     13 C13         -0.0892   1.8783   1.9354 C.3            1 <1>                0.0000
     14 C14         -0.3529   2.0281   3.4115 C.2            1 <1>                0.0000
     15 O15         -0.9785   1.1691   4.0093 O.co2          1 <1>                0.0000
     16 O16          0.0593   3.0083   4.0080 O.co2          1 <1>                0.0000
     17 H17          2.2884   1.1310   0.5323 H              1 <1>                0.0000
     18 H18          2.2800   1.1406  -1.2476 H              1 <1>                0.0000
     19 H19          1.2632  -1.1209  -1.2551 H              1 <1>                0.0000
     20 H20          1.2716  -1.1306   0.5249 H              1 <1>                0.0000
     21 H21         -1.1898  -1.8868  -0.4593 H              1 <1>                0.0000
     22 H22         -2.5335  -0.7239  -0.3573 H              1 <1>                0.0000
     23 H23         -2.0861  -0.0027  -2.6872 H              1 <1>                0.0000
     24 H24         -0.7424  -1.1657  -2.7892 H              1 <1>                0.0000
     25 H25         -1.7842   0.5882   1.6138 H              1 <1>                0.0000
     26 H26         -0.2656  -0.2684   1.9720 H              1 <1>                0.0000
     27 H27          0.9862   1.8613   1.7583 H              1 <1>                0.0000
     28 H28         -0.5324   2.7180   1.4001 H              1 <1>                0.0000
@<TRIPOS>BOND
    1    1    2 ar    
    2    2    3 ar    
    3    2    4 1     
    4    4    5 1     
    5    4   17 1     
    6    4   18 1     
    7    5    6 1     
    8    5   19 1     
    9    5   20 1     
   10    6    7 1     
   11    6   12 1     
   12    7    8 1     
   13    7   21 1     
   14    7   22 1     
   15    8    9 1     
   16    8   23 1     
   17    8   24 1     
   18    9   10 ar    
   19    9   11 ar    
   20   12   13 1     
   21   12   25 1     
   22   12   26 1     
   23   13   14 1     
   24   13   27 1     
   25   13   28 1     
   26   14   15 ar    
   27   14   16 ar    
@<TRIPOS>SUBSTRUCTURE
      1 ****           1
