#       Name:                TCI
#       Creating user name   gbret
#       Creation time:       Fri Sep  9 16:50:32 2016


#       File generated by GOLD software.
#

@<TRIPOS>MOLECULE
TCI
    53    55     1
SMALL
NO_CHARGES


@<TRIPOS>ATOM
      1 C1          -1.0252   7.4953   2.4192 C.3            1 <1>                0.0000
      2 C2          -1.0044   5.9654   2.4108 C.3            1 <1>                0.0000
      3 C3          -0.2883   5.4720   1.1520 C.3            1 <1>                0.0000
      4 C4          -0.2675   3.9422   1.1436 C.3            1 <1>                0.0000
      5 C5           0.4486   3.4488  -0.1152 C.3            1 <1>                0.0000
      6 C6           0.4690   1.9419  -0.1235 C.ar           1 <1>                0.0000
      7 C7           1.5184   1.2634   0.4667 C.ar           1 <1>                0.0000
      8 C8           1.5318  -0.1233   0.4626 C.ar           1 <1>                0.0000
      9 O9           2.5628  -0.7926   1.0422 O.3            1 <1>                0.0000
     10 C10          0.4959  -0.8291  -0.1308 C.ar           1 <1>                0.0000
     11 C11          0.4991  -2.3268  -0.1112 C.3            1 <1>                0.0000
     12 C12          1.8592  -2.9382  -0.1882 C.2            1 <1>                0.0000
     13 C13          2.0672  -4.0716  -0.7931 C.2            1 <1>                0.0000
     14 C14          3.4739  -4.6123  -0.7886 C.3            1 <1>                0.0000
     15 C15          1.0193  -4.8814  -1.4941 C.3            1 <1>                0.0000
     16 C16         -0.3909  -4.3639  -1.1871 C.3            1 <1>                0.0000
     17 C17         -0.3551  -2.8410  -1.2744 C.3            1 <1>                0.0000
     18 C18         -1.7367  -2.2050  -1.1558 C.3            1 <1>                0.0000
     19 C19         -2.6627  -2.7715  -2.2339 C.3            1 <1>                0.0000
     20 C20         -2.3205  -2.4878   0.2299 C.3            1 <1>                0.0000
     21 O21         -1.5834  -0.7936  -1.3403 O.3            1 <1>                0.0000
     22 C22         -0.5540  -0.1492  -0.7326 C.ar           1 <1>                0.0000
     23 C23         -0.5625   1.2429  -0.7152 C.ar           1 <1>                0.0000
     24 H24         -0.0026   7.8726   2.4115 H              1 <1>                0.0000
     25 H25         -1.5524   7.8563   1.5362 H              1 <1>                0.0000
     26 H26         -1.5354   7.8468   3.3160 H              1 <1>                0.0000
     27 H27         -0.4772   5.6044   3.2939 H              1 <1>                0.0000
     28 H28         -2.0270   5.5881   2.4186 H              1 <1>                0.0000
     29 H29         -0.8155   5.8331   0.2690 H              1 <1>                0.0000
     30 H30          0.7343   5.8493   1.1443 H              1 <1>                0.0000
     31 H31          0.2596   3.5811   2.0267 H              1 <1>                0.0000
     32 H32         -1.2901   3.5649   1.1513 H              1 <1>                0.0000
     33 H33         -0.0786   3.8098  -0.9983 H              1 <1>                0.0000
     34 H34          1.4712   3.8260  -0.1229 H              1 <1>                0.0000
     35 H35          2.3258   1.8114   0.9295 H              1 <1>                0.0000
     36 H36          2.4251  -0.9928   1.9782 H              1 <1>                0.0000
     37 H37          0.0389  -2.6568   0.8202 H              1 <1>                0.0000
     38 H38          2.6924  -2.4262   0.2700 H              1 <1>                0.0000
     39 H39          4.1253  -3.9257  -0.2479 H              1 <1>                0.0000
     40 H40          3.4872  -5.5865  -0.2999 H              1 <1>                0.0000
     41 H41          3.8267  -4.7157  -1.8147 H              1 <1>                0.0000
     42 H42          1.1908  -4.8313  -2.5693 H              1 <1>                0.0000
     43 H43          1.0960  -5.9195  -1.1705 H              1 <1>                0.0000
     44 H44         -1.0968  -4.7594  -1.9174 H              1 <1>                0.0000
     45 H45         -0.6864  -4.6697  -0.1834 H              1 <1>                0.0000
     46 H46          0.1005  -2.5424  -2.2185 H              1 <1>                0.0000
     47 H47         -2.7507  -3.8505  -2.1070 H              1 <1>                0.0000
     48 H48         -3.6477  -2.3135  -2.1441 H              1 <1>                0.0000
     49 H49         -2.2494  -2.5540  -3.2188 H              1 <1>                0.0000
     50 H50         -1.6643  -2.0691   0.9930 H              1 <1>                0.0000
     51 H51         -3.3071  -2.0311   0.3086 H              1 <1>                0.0000
     52 H52         -2.4059  -3.5647   0.3753 H              1 <1>                0.0000
     53 H53         -1.3811   1.7796  -1.1715 H              1 <1>                0.0000
@<TRIPOS>BOND
    1    1    2 1     
    2    1   24 1     
    3    1   25 1     
    4    1   26 1     
    5    2    3 1     
    6    2   27 1     
    7    2   28 1     
    8    3    4 1     
    9    3   29 1     
   10    3   30 1     
   11    4    5 1     
   12    4   31 1     
   13    4   32 1     
   14    5    6 1     
   15    5   33 1     
   16    5   34 1     
   17    6   23 ar    
   18    6    7 ar    
   19    7    8 ar    
   20    7   35 1     
   21    8    9 1     
   22    8   10 ar    
   23    9   36 1     
   24   10   22 ar    
   25   10   11 1     
   26   11   17 1     
   27   11   12 1     
   28   11   37 1     
   29   12   13 2     
   30   12   38 1     
   31   13   14 1     
   32   13   15 1     
   33   14   39 1     
   34   14   40 1     
   35   14   41 1     
   36   15   16 1     
   37   15   42 1     
   38   15   43 1     
   39   16   17 1     
   40   16   44 1     
   41   16   45 1     
   42   17   18 1     
   43   17   46 1     
   44   18   19 1     
   45   18   20 1     
   46   18   21 1     
   47   19   47 1     
   48   19   48 1     
   49   19   49 1     
   50   20   50 1     
   51   20   51 1     
   52   20   52 1     
   53   21   22 1     
   54   22   23 ar    
   55   23   53 1     
@<TRIPOS>SUBSTRUCTURE
      1 ****           1
@<TRIPOS>SET
DONOR_HYDROGENS      STATIC     ATOMS    <user>   **** ""
1 36
ATOM$RED        STATIC     ATOMS    COLORGROUP SYSTEM
1 36
