#       Name:                TD7
#       Creating user name   gbret
#       Creation time:       Fri Sep  9 16:51:51 2016


#       File generated by GOLD software.
#

@<TRIPOS>MOLECULE
TD7
    53    54     1
SMALL
NO_CHARGES


@<TRIPOS>ATOM
      1 C1          -0.2636   2.2242  -0.5304 C.3            1 <1>                0.0000
      2 C2          -0.0969   0.7414  -0.3191 C.2            1 <1>                0.0000
      3 C3          -0.1489  -0.0914  -1.3461 C.2            1 <1>                0.0000
      4 C4          -0.3653   0.2518  -2.7974 C.3            1 <1>                0.0000
      5 C5           0.9885   0.3795  -3.4987 C.3            1 <1>                0.0000
      6 O6           0.7833   0.7049  -4.8749 O.3            1 <1>                0.0000
      7 P7           1.9932   0.9155  -5.9160 P.3            1 <1>                0.0000
      8 O8           2.8196   2.1533  -5.5017 O.co2          1 <1>                0.0000
      9 O9           2.9007  -0.3349  -5.9107 O.co2          1 <1>                0.0000
     10 O10          1.3963   1.1390  -7.3944 O.3            1 <1>                0.0000
     11 P11          2.0044   1.0012  -8.8788 P.3            1 <1>                0.0000
     12 O12          2.0096  -0.5070  -9.3030 O.co2          1 <1>                0.0000
     13 O13          1.1251   1.8228  -9.8818 O.co2          1 <1>                0.0000
     14 O14          3.4704   1.5535  -8.8959 O.co2          1 <1>                0.0000
     15 S15          0.0931  -1.7033  -0.6383 S.3            1 <1>                0.0000
     16 C16          0.2541  -1.1449   1.0425 C.2            1 <1>                0.0000
     17 N17          0.1159   0.2399   0.9373 N.pl3          1 <1>                0.0000
     18 C18          0.1851   1.1117   2.1126 C.3            1 <1>                0.0000
     19 C19         -1.1727   1.1881   2.7620 C.ar           1 <1>                0.0000
     20 C20         -2.2731   0.5958   2.1737 C.ar           1 <1>                0.0000
     21 N21         -3.4520   0.6830   2.7731 N.ar           1 <1>                0.0000
     22 C22         -3.5865   1.3240   3.9168 C.ar           1 <1>                0.0000
     23 C23         -4.9473   1.3962   4.5604 C.3            1 <1>                0.0000
     24 N24         -2.5644   1.9029   4.5133 N.ar           1 <1>                0.0000
     25 C25         -1.3487   1.8543   3.9763 C.ar           1 <1>                0.0000
     26 N26         -0.2761   2.4643   4.6063 N.pl3          1 <1>                0.0000
     27 C27          0.4626  -1.8749   2.1409 C.2            1 <1>                0.0000
     28 O28          0.5592  -1.2644   3.3580 O.3            1 <1>                0.0000
     29 C29          0.5912  -3.3728   2.0369 C.3            1 <1>                0.0000
     30 C30          2.0705  -3.7526   1.9461 C.3            1 <1>                0.0000
     31 C31          2.1991  -5.2505   1.8422 C.2            1 <1>                0.0000
     32 O32          1.2001  -5.9495   1.8409 O.co2          1 <1>                0.0000
     33 O33          3.3021  -5.7634   1.7594 O.co2          1 <1>                0.0000
     34 H34          0.7166   2.6878  -0.6420 H              1 <1>                0.0000
     35 H35         -0.8528   2.3989  -1.4306 H              1 <1>                0.0000
     36 H36         -0.7752   2.6583   0.3286 H              1 <1>                0.0000
     37 H37         -0.9484  -0.5362  -3.2741 H              1 <1>                0.0000
     38 H38         -0.9032   1.1970  -2.8710 H              1 <1>                0.0000
     39 H39          1.5717   1.1674  -3.0220 H              1 <1>                0.0000
     40 H40          1.5264  -0.5657  -3.4251 H              1 <1>                0.0000
     41 H41          0.9056   0.7070   2.8233 H              1 <1>                0.0000
     42 H42          0.4981   2.1100   1.8065 H              1 <1>                0.0000
     43 H43         -2.1741   0.0684   1.2365 H              1 <1>                0.0000
     44 H44         -5.0800   0.5435   5.2262 H              1 <1>                0.0000
     45 H45         -5.0300   2.3203   5.1326 H              1 <1>                0.0000
     46 H46         -5.7160   1.3772   3.7879 H              1 <1>                0.0000
     47 H47          0.6059   2.4306   4.2039 H              1 <1>                0.0000
     48 H48         -0.4071   2.9251   5.4496 H              1 <1>                0.0000
     49 H49          0.7102  -1.8743   4.0930 H              1 <1>                0.0000
     50 H50          0.1503  -3.8374   2.9189 H              1 <1>                0.0000
     51 H51          0.0712  -3.7211   1.1445 H              1 <1>                0.0000
     52 H52          2.5114  -3.2880   1.0641 H              1 <1>                0.0000
     53 H53          2.5905  -3.4043   2.8385 H              1 <1>                0.0000
@<TRIPOS>BOND
    1    1    2 1     
    2    1   34 1     
    3    1   35 1     
    4    1   36 1     
    5    2   17 1     
    6    2    3 2     
    7    3    4 1     
    8    3   15 1     
    9    4    5 1     
   10    4   37 1     
   11    4   38 1     
   12    5    6 1     
   13    5   39 1     
   14    5   40 1     
   15    6    7 1     
   16    7    8 ar    
   17    7    9 ar    
   18    7   10 1     
   19   10   11 1     
   20   11   12 ar    
   21   11   13 ar    
   22   11   14 ar    
   23   15   16 1     
   24   16   17 1     
   25   16   27 2     
   26   17   18 1     
   27   18   19 1     
   28   18   41 1     
   29   18   42 1     
   30   19   25 ar    
   31   19   20 ar    
   32   20   21 ar    
   33   20   43 1     
   34   21   22 ar    
   35   22   23 1     
   36   22   24 ar    
   37   23   44 1     
   38   23   45 1     
   39   23   46 1     
   40   24   25 ar    
   41   25   26 1     
   42   26   47 1     
   43   26   48 1     
   44   27   28 1     
   45   27   29 1     
   46   28   49 1     
   47   29   30 1     
   48   29   50 1     
   49   29   51 1     
   50   30   31 1     
   51   30   52 1     
   52   30   53 1     
   53   31   32 ar    
   54   31   33 ar    
@<TRIPOS>SUBSTRUCTURE
      1 ****           1
@<TRIPOS>SET
DONOR_HYDROGENS      STATIC     ATOMS    <user>   **** ""
3 47 48 49
ATOM$RED        STATIC     ATOMS    COLORGROUP SYSTEM
3 47 48 49
