#       Name:                TF5
#       Creating user name   gbret
#       Creation time:       Fri Sep  9 16:55:39 2016


#       File generated by GOLD software.
#

@<TRIPOS>MOLECULE
TF5
    30    31     1
SMALL
NO_CHARGES


@<TRIPOS>ATOM
      1 O1           2.8096   1.2972   2.2215 O.3            1 <1>                0.0000
      2 C2           2.8290  -0.1317   2.2136 C.3            1 <1>                0.0000
      3 C3           1.3936  -0.6612   2.2245 C.3            1 <1>                0.0000
      4 O4           0.7380  -0.2854   1.0116 O.3            1 <1>                0.0000
      5 C5          -0.5532  -0.6801   0.8605 C.ar           1 <1>                0.0000
      6 C6          -1.1790  -1.4085   1.8594 C.ar           1 <1>                0.0000
      7 C7          -2.4926  -1.8091   1.7047 C.ar           1 <1>                0.0000
      8 C8          -3.1900  -1.4867   0.5538 C.ar           1 <1>                0.0000
      9 C9          -2.5788  -0.7617  -0.4490 C.ar           1 <1>                0.0000
     10 C10         -1.2569  -0.3480  -0.3009 C.ar           1 <1>                0.0000
     11 C11         -0.5955   0.4318  -1.3753 C.ar           1 <1>                0.0000
     12 C12         -1.0500   1.7108  -1.6918 C.ar           1 <1>                0.0000
     13 C13         -0.4323   2.4339  -2.6915 C.ar           1 <1>                0.0000
     14 C14          0.6393   1.8919  -3.3824 C.ar           1 <1>                0.0000
     15 F15          1.2400   2.6047  -4.3602 F              1 <1>                0.0000
     16 C16          1.0974   0.6202  -3.0730 C.ar           1 <1>                0.0000
     17 F17          2.1433   0.0964  -3.7490 F              1 <1>                0.0000
     18 C18          0.4871  -0.1106  -2.0684 C.ar           1 <1>                0.0000
     19 F19          0.9327  -1.3497  -1.7661 F              1 <1>                0.0000
     20 H20          3.6875   1.7025   2.2153 H              1 <1>                0.0000
     21 H21          3.3392  -0.4832   1.3168 H              1 <1>                0.0000
     22 H22          3.3562  -0.4927   3.0967 H              1 <1>                0.0000
     23 H23          1.4079  -1.7479   2.3081 H              1 <1>                0.0000
     24 H24          0.8568  -0.2385   3.0737 H              1 <1>                0.0000
     25 H25         -0.6396  -1.6637   2.7596 H              1 <1>                0.0000
     26 H26         -2.9770  -2.3767   2.4855 H              1 <1>                0.0000
     27 H27         -4.2160  -1.8038   0.4398 H              1 <1>                0.0000
     28 H28         -3.1262  -0.5118  -1.3459 H              1 <1>                0.0000
     29 H29         -1.8854   2.1356  -1.1550 H              1 <1>                0.0000
     30 H30         -0.7853   3.4248  -2.9363 H              1 <1>                0.0000
@<TRIPOS>BOND
    1    1    2 1     
    2    1   20 1     
    3    2    3 1     
    4    2   21 1     
    5    2   22 1     
    6    3    4 1     
    7    3   23 1     
    8    3   24 1     
    9    4    5 1     
   10    5   10 ar    
   11    5    6 ar    
   12    6    7 ar    
   13    6   25 1     
   14    7    8 ar    
   15    7   26 1     
   16    8    9 ar    
   17    8   27 1     
   18    9   10 ar    
   19    9   28 1     
   20   10   11 1     
   21   11   18 ar    
   22   11   12 ar    
   23   12   13 ar    
   24   12   29 1     
   25   13   14 ar    
   26   13   30 1     
   27   14   15 1     
   28   14   16 ar    
   29   16   17 1     
   30   16   18 ar    
   31   18   19 1     
@<TRIPOS>SUBSTRUCTURE
      1 ****           1
@<TRIPOS>SET
DONOR_HYDROGENS      STATIC     ATOMS    <user>   **** ""
1 20
ATOM$RED        STATIC     ATOMS    COLORGROUP SYSTEM
1 20
