#       Name:                THG
#       Creating user name   gbret
#       Creation time:       Fri Sep  9 17:00:11 2016


#       File generated by GOLD software.
#

@<TRIPOS>MOLECULE
THG
    53    55     1
SMALL
NO_CHARGES


@<TRIPOS>ATOM
      1 N1          -0.9998   9.3336  -0.4707 N.pl3          1 <1>                0.0000
      2 C2          -0.9812   7.9617  -0.4783 C.2            1 <1>                0.0000
      3 N3          -2.1190   7.3019  -0.4764 N.2            1 <1>                0.0000
      4 C4          -2.1432   5.9628  -0.4831 C.2            1 <1>                0.0000
      5 N5          -3.3616   5.2977  -0.4648 N.pl3          1 <1>                0.0000
      6 C6          -3.3609   3.8517  -0.7406 C.3            1 <1>                0.0000
      7 C7          -2.1617   3.2437  -0.0001 C.3            1 <1>                0.0000
      8 C8          -2.1319   1.7312  -0.2289 C.3            1 <1>                0.0000
      9 N9          -0.9226   1.1693   0.3778 N.pl3          1 <1>                0.0000
     10 C10         -0.6753  -0.1967   0.2985 C.ar           1 <1>                0.0000
     11 C11         -1.5749  -1.0282  -0.3628 C.ar           1 <1>                0.0000
     12 C12         -1.3330  -2.3805  -0.4431 C.ar           1 <1>                0.0000
     13 C13         -0.1823  -2.9190   0.1403 C.ar           1 <1>                0.0000
     14 C14          0.7191  -2.0814   0.8036 C.ar           1 <1>                0.0000
     15 C15          0.4743  -0.7291   0.8756 C.ar           1 <1>                0.0000
     16 C16          0.0798  -4.3683   0.0565 C.2            1 <1>                0.0000
     17 O17         -0.7053  -5.0958  -0.5205 O.2            1 <1>                0.0000
     18 N18          1.1896  -4.8861   0.6194 N.am           1 <1>                0.0000
     19 C19          1.4499  -6.3253   0.5362 C.3            1 <1>                0.0000
     20 C20          2.9536  -6.5796   0.6593 C.3            1 <1>                0.0000
     21 C21          3.6744  -5.9676  -0.5436 C.3            1 <1>                0.0000
     22 C22          5.1555  -6.2180  -0.4224 C.2            1 <1>                0.0000
     23 O23          5.5940  -6.8293   0.5371 O.co2          1 <1>                0.0000
     24 O24          5.9154  -5.8094  -1.2839 O.co2          1 <1>                0.0000
     25 C25          0.7278  -7.0319   1.6544 C.2            1 <1>                0.0000
     26 O26          0.0578  -6.3925   2.4474 O.co2          1 <1>                0.0000
     27 O27          0.8136  -8.2430   1.7661 O.co2          1 <1>                0.0000
     28 N28         -0.9273   3.8429  -0.5180 N.3            1 <1>                0.0000
     29 C29         -0.9558   5.2494  -0.5006 C.2            1 <1>                0.0000
     30 C30          0.2537   5.9631  -0.5013 C.2            1 <1>                0.0000
     31 O31          1.3233   5.3729  -0.5131 O.2            1 <1>                0.0000
     32 N32          0.2141   7.3113  -0.4932 N.am           1 <1>                0.0000
     33 H33          1.0406   7.8190  -0.4909 H              1 <1>                0.0000
     34 H34         -0.1665   9.8300  -0.4759 H              1 <1>                0.0000
     35 H35         -1.8464   9.8071  -0.4641 H              1 <1>                0.0000
     36 H36         -4.1871   5.7707  -0.2759 H              1 <1>                0.0000
     37 H37         -4.2862   3.4047  -0.3770 H              1 <1>                0.0000
     38 H38         -3.2611   3.6789  -1.8121 H              1 <1>                0.0000
     39 H39         -2.2492   3.4496   1.0667 H              1 <1>                0.0000
     40 H40         -3.0118   1.2774   0.2271 H              1 <1>                0.0000
     41 H41         -2.1305   1.5256  -1.2993 H              1 <1>                0.0000
     42 H42         -0.2945   1.7502   0.8349 H              1 <1>                0.0000
     43 H43         -2.4638  -0.6116  -0.8130 H              1 <1>                0.0000
     44 H44         -2.0314  -3.0251  -0.9560 H              1 <1>                0.0000
     45 H45          1.6087  -2.4945   1.2556 H              1 <1>                0.0000
     46 H46          1.1705  -0.0814   1.3876 H              1 <1>                0.0000
     47 H47          1.8159  -4.3057   1.0797 H              1 <1>                0.0000
     48 H48          1.0946  -6.7040  -0.4222 H              1 <1>                0.0000
     49 H49          3.3255  -6.1229   1.5765 H              1 <1>                0.0000
     50 H50          3.1396  -7.6532   0.6866 H              1 <1>                0.0000
     51 H51          3.3026  -6.4242  -1.4609 H              1 <1>                0.0000
     52 H52          3.4885  -4.8940  -0.5710 H              1 <1>                0.0000
     53 H53         -0.1202   3.4915  -0.0248 H              1 <1>                0.0000
@<TRIPOS>BOND
    1    1    2 1     
    2    1   34 1     
    3    1   35 1     
    4    2   32 1     
    5    2    3 2     
    6    3    4 1     
    7    4   29 2     
    8    4    5 1     
    9    5    6 1     
   10    5   36 1     
   11    6    7 1     
   12    6   37 1     
   13    6   38 1     
   14    7    8 1     
   15    7   28 1     
   16    7   39 1     
   17    8    9 1     
   18    8   40 1     
   19    8   41 1     
   20    9   10 1     
   21    9   42 1     
   22   10   15 ar    
   23   10   11 ar    
   24   11   12 ar    
   25   11   43 1     
   26   12   13 ar    
   27   12   44 1     
   28   13   14 ar    
   29   13   16 1     
   30   14   15 ar    
   31   14   45 1     
   32   15   46 1     
   33   16   17 2     
   34   16   18 am    
   35   18   19 1     
   36   18   47 1     
   37   19   20 1     
   38   19   25 1     
   39   19   48 1     
   40   20   21 1     
   41   20   49 1     
   42   20   50 1     
   43   21   22 1     
   44   21   51 1     
   45   21   52 1     
   46   22   23 ar    
   47   22   24 ar    
   48   25   26 ar    
   49   25   27 ar    
   50   28   29 1     
   51   28   53 1     
   52   29   30 1     
   53   30   31 2     
   54   30   32 am    
   55   32   33 1     
@<TRIPOS>SUBSTRUCTURE
      1 ****           1
@<TRIPOS>SET
DONOR_HYDROGENS      STATIC     ATOMS    <user>   **** ""
7 34 35 36 42 47 53 33
ATOM$RED        STATIC     ATOMS    COLORGROUP SYSTEM
7 34 35 36 42 47 53 33
