#	Name:			<unnamed>
#	Creating user name:	gilims
#	Creation time:		Tue Dec  4 15:14:53 2012

#	Modifying user name:	gilims
#	Modification time:	Tue Dec  4 15:14:53 2012

@<TRIPOS>MOLECULE
THR
   17    16     1     0     0
PROTEIN
NO_CHARGES


@<TRIPOS>DICT
PROTEIN protein
@<TRIPOS>ATOM
      1 CA         -0.1495    0.2986    0.0000 C.3       1 THR1        0.0000 BACKBONE|DICT|DIRECT
      2 N          -0.6297    1.6700    0.0000 N.am      1 THR1        0.0000 BACKBONE|DICT|DIRECT
      3 CB         -0.5583   -0.3622   -1.3180 C.3       1 THR1        0.0000 DICT
      4 C           1.3615    0.2920    0.2400 C.2       1 THR1        0.0000 BACKBONE|DICT|DIRECT
      5 O           2.1152    0.8978   -0.5202 O.2       1 THR1        0.0000 BACKBONE|DICT|DIRECT
      6 CG2        -2.0526   -0.2112   -1.6101 C.3       1 THR1        0.0000 DICT
      7 OG1         0.0727    0.4351   -2.3165 O.3       1 THR1        0.0000 DICT
      8 OXT         1.7952   -0.3948    1.2983 O.3       1 THR1        1.0000 CAP|DICT
      9 HNCAP      -1.6247    1.8942    0.0000 H         1 THR1        1.0000 CAP|DICT
     10 H           0.0620    2.4196    0.0000 H         1 THR1        1.0000 BACKBONE|DICT|ESSENTIAL|DIRECT
     11 HA         -0.6397   -0.2430    0.8090 H         1 THR1        1.0000 BACKBONE|DICT|DIRECT
     12 HB         -0.2191   -1.3929   -1.4203 H         1 THR1        1.0000 DICT
     13 HG22       -2.4393    0.6403   -1.0501 H         1 THR1        1.0000 DICT
     14 HG21       -2.2073   -0.0357   -2.6746 H         1 THR1        1.0000 DICT
     15 HG23       -2.5819   -1.1186   -1.3194 H         1 THR1        1.0000 DICT
     16 HG1        -0.1399    0.0782   -3.1819 H         1 THR1        1.0000 DICT|ESSENTIAL
     17 HOCAP       2.6449   -0.0423    1.5728 H         1 THR1        1.0000 CAP|DICT
@<TRIPOS>BOND
     1    1    2 1    BACKBONE|DICT
     2    1    3 1    DICT
     3    1    4 1    BACKBONE|DICT
     4    4    5 2    BACKBONE|DICT
     5    4    8 1    CAP|DICT
     6    3    6 1    DICT
     7    3    7 1    DICT
     8    2    9 1    CAP|DICT
     9    2   10 1    BACKBONE|DICT
    10    1   11 1    BACKBONE|DICT
    11    3   12 1    DICT
    12    6   13 1    DICT
    13    6   14 1    DICT
    14    6   15 1    DICT
    15    7   16 1    DICT
    16    8   17 1    CAP|DICT
@<TRIPOS>SUBSTRUCTURE
     1 THR1        1 RESIDUE           1 A     THR     0 ROOT|DICT 
