#       Name:                TLC
#       Creating user name   gbret
#       Creation time:       Fri Sep  9 17:04:43 2016


#       File generated by GOLD software.
#

@<TRIPOS>MOLECULE
TLC
    39    41     1
SMALL
NO_CHARGES


@<TRIPOS>ATOM
      1 C1           2.7108   3.3581   1.2003 C.3            1 <1>                0.0000
      2 C2           2.7667   1.8536   1.1346 C.2            1 <1>                0.0000
      3 C3           1.6292   1.1287   1.0728 C.2            1 <1>                0.0000
      4 N4           1.6980  -0.2366   1.0137 N.am           1 <1>                0.0000
      5 C5           0.4639  -1.0231   0.9466 C.3            1 <1>                0.0000
      6 O6          -0.6831  -0.1517   0.8447 O.3            1 <1>                0.0000
      7 C7          -1.7421  -0.9779   0.3153 C.3            1 <1>                0.0000
      8 C8          -2.8278  -0.1074  -0.3205 C.3            1 <1>                0.0000
      9 O9          -3.4807   0.6573   0.6949 O.3            1 <1>                0.0000
     10 P10         -4.6795   1.6859   0.3836 P.3            1 <1>                0.0000
     11 O11         -5.9199   0.8947  -0.1546 O.co2          1 <1>                0.0000
     12 O12         -5.0728   2.4426   1.6978 O.co2          1 <1>                0.0000
     13 O13         -4.2122   2.7213  -0.6953 O.co2          1 <1>                0.0000
     14 C14         -1.0663  -1.8588  -0.7556 C.3            1 <1>                0.0000
     15 O15         -1.6302  -3.1698  -0.8290 O.3            1 <1>                0.0000
     16 C16         -1.0839  -1.1094  -2.1074 C.3            1 <1>                0.0000
     17 C17          0.3804  -1.2698  -2.5887 C.3            1 <1>                0.0000
     18 O18          1.1484  -1.1564  -1.3726 O.3            1 <1>                0.0000
     19 C19          0.4326  -1.8666  -0.3481 C.3            1 <1>                0.0000
     20 C20          2.8884  -0.8635   1.0162 C.2            1 <1>                0.0000
     21 O21          2.9266  -2.0776   0.9626 O.2            1 <1>                0.0000
     22 N22          4.0377  -0.1656   1.0766 N.am           1 <1>                0.0000
     23 H23          4.8875  -0.6333   1.0769 H              1 <1>                0.0000
     24 C24          4.0127   1.1815   1.1310 C.2            1 <1>                0.0000
     25 O25          5.0521   1.8138   1.1854 O.2            1 <1>                0.0000
     26 H26          3.7240   3.7580   1.2395 H              1 <1>                0.0000
     27 H27          2.2027   3.7418   0.3156 H              1 <1>                0.0000
     28 H28          2.1652   3.6627   2.0934 H              1 <1>                0.0000
     29 H29          0.6695   1.6242   1.0704 H              1 <1>                0.0000
     30 H30          0.3770  -1.6673   1.8217 H              1 <1>                0.0000
     31 H31         -2.1685  -1.5980   1.1038 H              1 <1>                0.0000
     32 H32         -2.3740   0.5663  -1.0474 H              1 <1>                0.0000
     33 H33         -3.5572  -0.7441  -0.8212 H              1 <1>                0.0000
     34 H34         -2.5687  -3.1818  -1.0618 H              1 <1>                0.0000
     35 H35         -1.7756  -1.5824  -2.8045 H              1 <1>                0.0000
     36 H36         -1.3328  -0.0578  -1.9652 H              1 <1>                0.0000
     37 H37          0.5290  -2.2476  -3.0469 H              1 <1>                0.0000
     38 H38          0.6448  -0.4742  -3.2853 H              1 <1>                0.0000
     39 H39          0.8280  -2.8706  -0.1937 H              1 <1>                0.0000
@<TRIPOS>BOND
    1    1    2 1     
    2    1   26 1     
    3    1   27 1     
    4    1   28 1     
    5    2   24 1     
    6    2    3 2     
    7    3    4 1     
    8    3   29 1     
    9    4    5 1     
   10    4   20 1     
   11    5   19 1     
   12    5    6 1     
   13    5   30 1     
   14    6    7 1     
   15    7    8 1     
   16    7   14 1     
   17    7   31 1     
   18    8    9 1     
   19    8   32 1     
   20    8   33 1     
   21    9   10 1     
   22   10   11 ar    
   23   10   12 ar    
   24   10   13 ar    
   25   14   19 1     
   26   14   15 1     
   27   14   16 1     
   28   15   34 1     
   29   16   17 1     
   30   16   35 1     
   31   16   36 1     
   32   17   18 1     
   33   17   37 1     
   34   17   38 1     
   35   18   19 1     
   36   19   39 1     
   37   20   21 2     
   38   20   22 1     
   39   22   23 1     
   40   22   24 1     
   41   24   25 2     
@<TRIPOS>SUBSTRUCTURE
      1 ****           1
@<TRIPOS>SET
DONOR_HYDROGENS      STATIC     ATOMS    <user>   **** ""
2 34 23
ATOM$RED        STATIC     ATOMS    COLORGROUP SYSTEM
2 34 23
