#       Name:                TN3
#       Creating user name   gbret
#       Creation time:       Fri Sep  9 17:08:08 2016


#       File generated by GOLD software.
#

@<TRIPOS>MOLECULE
TN3
    31    32     1
SMALL
NO_CHARGES


@<TRIPOS>ATOM
      1 C1          -0.0946   5.5524   0.2078 C.3            1 <1>                0.0000
      2 N2          -0.0820   4.0911   0.1041 N.am           1 <1>                0.0000
      3 C3          -1.2293   3.3963   0.2356 C.2            1 <1>                0.0000
      4 O4          -2.2748   3.9823   0.4403 O.2            1 <1>                0.0000
      5 C5          -1.2167   1.9241   0.1310 C.ar           1 <1>                0.0000
      6 C6          -0.0150   1.2485  -0.0985 C.ar           1 <1>                0.0000
      7 C7          -0.0066  -0.1250  -0.1950 C.ar           1 <1>                0.0000
      8 C8          -1.1913  -0.8403  -0.0645 C.ar           1 <1>                0.0000
      9 O9          -1.1787  -2.1939  -0.1603 O.3            1 <1>                0.0000
     10 C10          0.0258  -2.8147  -0.2741 C.ar           1 <1>                0.0000
     11 C11          0.5304  -3.1271  -1.5265 C.ar           1 <1>                0.0000
     12 C12          1.7548  -3.7581  -1.6408 C.ar           1 <1>                0.0000
     13 C13          2.4792  -4.0798  -0.5066 C.ar           1 <1>                0.0000
     14 Cl14         4.0164  -4.8723  -0.6562 Cl             1 <1>                0.0000
     15 C15          1.9809  -3.7706   0.7464 C.ar           1 <1>                0.0000
     16 C16          0.7569  -3.1325   0.8668 C.ar           1 <1>                0.0000
     17 O17          0.2655  -2.8279   2.0976 O.3            1 <1>                0.0000
     18 C18         -2.3897  -0.1721   0.1644 C.ar           1 <1>                0.0000
     19 Cl19        -3.8662  -1.0705   0.3272 Cl             1 <1>                0.0000
     20 C20         -2.4052   1.2021   0.2671 C.ar           1 <1>                0.0000
     21 H21          0.9176   5.9348   0.0758 H              1 <1>                0.0000
     22 H22         -0.7429   5.9660  -0.5647 H              1 <1>                0.0000
     23 H23         -0.4678   5.8437   1.1896 H              1 <1>                0.0000
     24 H24          0.7521   3.6237  -0.0592 H              1 <1>                0.0000
     25 H25          0.9060   1.8032  -0.2004 H              1 <1>                0.0000
     26 H26          0.9218  -0.6473  -0.3728 H              1 <1>                0.0000
     27 H27         -0.0334  -2.8777  -2.4133 H              1 <1>                0.0000
     28 H28          2.1468  -4.0010  -2.6174 H              1 <1>                0.0000
     29 H29          2.5478  -4.0229   1.6303 H              1 <1>                0.0000
     30 H30          0.5291  -1.9556   2.4215 H              1 <1>                0.0000
     31 H31         -3.3357   1.7207   0.4448 H              1 <1>                0.0000
@<TRIPOS>BOND
    1    1    2 1     
    2    1   21 1     
    3    1   22 1     
    4    1   23 1     
    5    2    3 am    
    6    2   24 1     
    7    3    4 2     
    8    3    5 1     
    9    5   20 ar    
   10    5    6 ar    
   11    6    7 ar    
   12    6   25 1     
   13    7    8 ar    
   14    7   26 1     
   15    8    9 1     
   16    8   18 ar    
   17    9   10 1     
   18   10   16 ar    
   19   10   11 ar    
   20   11   12 ar    
   21   11   27 1     
   22   12   13 ar    
   23   12   28 1     
   24   13   14 1     
   25   13   15 ar    
   26   15   16 ar    
   27   15   29 1     
   28   16   17 1     
   29   17   30 1     
   30   18   19 1     
   31   18   20 ar    
   32   20   31 1     
@<TRIPOS>SUBSTRUCTURE
      1 ****           1
@<TRIPOS>SET
DONOR_HYDROGENS      STATIC     ATOMS    <user>   **** ""
2 24 30
ATOM$RED        STATIC     ATOMS    COLORGROUP SYSTEM
2 24 30
