#       Name:                TN6
#       Creating user name   gbret
#       Creation time:       Fri Sep  9 17:08:20 2016


#       File generated by GOLD software.
#

@<TRIPOS>MOLECULE
TN6
    19    18     1
SMALL
NO_CHARGES


@<TRIPOS>ATOM
      1 C1          -0.6563   1.9492   1.0590 C.3            1 <1>                0.0000
      2 C2          -0.5687   0.4237   0.9799 C.3            1 <1>                0.0000
      3 N3           0.0574   0.0344  -0.2906 N.3            1 <1>                0.0000
      4 C4           0.4821  -1.3715  -0.2592 C.3            1 <1>                0.0000
      5 C5           1.9625  -1.4487   0.1196 C.3            1 <1>                0.0000
      6 P6          -0.9772   0.3231  -1.5863 P.3            1 <1>                0.0000
      7 O7          -1.1343   1.8678  -1.7951 O.co2          1 <1>                0.0000
      8 O8          -0.3814  -0.3214  -2.8840 O.co2          1 <1>                0.0000
      9 O9          -2.3791  -0.3085  -1.2859 O.co2          1 <1>                0.0000
     10 H10          0.3459   2.3741   1.0026 H              1 <1>                0.0000
     11 H11         -1.2563   2.3221   0.2289 H              1 <1>                0.0000
     12 H12         -1.1209   2.2380   2.0017 H              1 <1>                0.0000
     13 H13          0.0313   0.0508   1.8100 H              1 <1>                0.0000
     14 H14         -1.5709  -0.0012   1.0363 H              1 <1>                0.0000
     15 H15         -0.1103  -1.9136   0.4779 H              1 <1>                0.0000
     16 H16          0.3351  -1.8176  -1.2428 H              1 <1>                0.0000
     17 H17          2.3000  -2.4833   0.0571 H              1 <1>                0.0000
     18 H18          2.5456  -0.8342  -0.5663 H              1 <1>                0.0000
     19 H19          2.0964  -1.0837   1.1379 H              1 <1>                0.0000
@<TRIPOS>BOND
    1    1    2 1     
    2    1   10 1     
    3    1   11 1     
    4    1   12 1     
    5    2    3 1     
    6    2   13 1     
    7    2   14 1     
    8    3    4 1     
    9    3    6 1     
   10    4    5 1     
   11    4   15 1     
   12    4   16 1     
   13    5   17 1     
   14    5   18 1     
   15    5   19 1     
   16    6    7 ar    
   17    6    8 ar    
   18    6    9 ar    
@<TRIPOS>SUBSTRUCTURE
      1 ****           1
