#       Name:                TR3
#       Creating user name   gbret
#       Creation time:       Fri Sep  9 17:15:00 2016


#       File generated by GOLD software.
#

@<TRIPOS>MOLECULE
TR3
    49    52     1
SMALL
NO_CHARGES


@<TRIPOS>ATOM
      1 C1          -2.0957   4.9275   4.9108 C.3            1 <1>                0.0000
      2 S2          -2.0872   3.1136   4.8994 S.3            1 <1>                0.0000
      3 C3          -1.2378   2.7307   3.4038 C.2            1 <1>                0.0000
      4 N4          -0.7486   3.5936   2.5518 N.2            1 <1>                0.0000
      5 N5          -0.1440   2.9228   1.4839 N.pl3          1 <1>                0.0000
      6 C6           0.4812   3.5342   0.3921 C.ar           1 <1>                0.0000
      7 C7           1.5977   2.9467  -0.1894 C.ar           1 <1>                0.0000
      8 C8           2.2123   3.5527  -1.2674 C.ar           1 <1>                0.0000
      9 C9           1.7175   4.7430  -1.7682 C.ar           1 <1>                0.0000
     10 C10          0.6065   5.3308  -1.1914 C.ar           1 <1>                0.0000
     11 C11         -0.0164   4.7273  -0.1168 C.ar           1 <1>                0.0000
     12 C12         -0.2613   1.5679   1.6781 C.ar           1 <1>                0.0000
     13 C13          0.1471   0.4543   0.9509 C.ar           1 <1>                0.0000
     14 C14         -0.1303  -0.8140   1.4272 C.ar           1 <1>                0.0000
     15 N15          0.2799  -1.9348   0.6976 N.am           1 <1>                0.0000
     16 C16          0.2739  -1.9010  -0.6498 C.2            1 <1>                0.0000
     17 O17         -0.0073  -0.8733  -1.2294 O.2            1 <1>                0.0000
     18 C18          0.6165  -3.1400  -1.4361 C.3            1 <1>                0.0000
     19 C19         -0.3798  -4.2529  -1.0981 C.3            1 <1>                0.0000
     20 C20         -0.0749  -5.4814  -1.9579 C.3            1 <1>                0.0000
     21 N21         -0.1941  -5.1308  -3.3782 N.4            1 <1>                0.0000
     22 H22         -0.0451  -5.9551  -3.9407 H              1 <1>                0.0000
     23 H23         -1.1174  -4.7652  -3.5571 H              1 <1>                0.0000
     24 C24          0.8069  -4.1153  -3.7263 C.3            1 <1>                0.0000
     25 C25          0.5360  -2.8342  -2.9345 C.3            1 <1>                0.0000
     26 C26         -0.8162  -0.9839   2.6307 C.ar           1 <1>                0.0000
     27 C27         -1.2235   0.0975   3.3548 C.ar           1 <1>                0.0000
     28 C28         -0.9472   1.3885   2.8945 C.ar           1 <1>                0.0000
     29 H29         -1.0698   5.2957   4.9056 H              1 <1>                0.0000
     30 H30         -2.6177   5.2940   4.0269 H              1 <1>                0.0000
     31 H31         -2.6047   5.2828   5.8068 H              1 <1>                0.0000
     32 H32          1.9849   2.0173   0.2014 H              1 <1>                0.0000
     33 H33          3.0805   3.0966  -1.7198 H              1 <1>                0.0000
     34 H34          2.2000   5.2149  -2.6114 H              1 <1>                0.0000
     35 H35          0.2231   6.2608  -1.5844 H              1 <1>                0.0000
     36 H36         -0.8840   5.1868   0.3332 H              1 <1>                0.0000
     37 H37          0.6779   0.5797   0.0187 H              1 <1>                0.0000
     38 H38          0.5687  -2.7363   1.1613 H              1 <1>                0.0000
     39 H39          1.6262  -3.4642  -1.1840 H              1 <1>                0.0000
     40 H40         -0.2890  -4.5148  -0.0439 H              1 <1>                0.0000
     41 H41         -1.3935  -3.9082  -1.3022 H              1 <1>                0.0000
     42 H42          0.9389  -5.8254  -1.7528 H              1 <1>                0.0000
     43 H43         -0.7823  -6.2757  -1.7196 H              1 <1>                0.0000
     44 H44          1.8019  -4.4884  -3.4835 H              1 <1>                0.0000
     45 H45          0.7506  -3.9010  -4.7935 H              1 <1>                0.0000
     46 H46         -0.4587  -2.4601  -3.1767 H              1 <1>                0.0000
     47 H47          1.2814  -2.0821  -3.1930 H              1 <1>                0.0000
     48 H48         -1.0264  -1.9800   2.9913 H              1 <1>                0.0000
     49 H49         -1.7543  -0.0431   4.2848 H              1 <1>                0.0000
@<TRIPOS>BOND
    1    1    2 1     
    2    1   29 1     
    3    1   30 1     
    4    1   31 1     
    5    2    3 1     
    6    3   28 1     
    7    3    4 2     
    8    4    5 1     
    9    5    6 1     
   10    5   12 1     
   11    6   11 ar    
   12    6    7 ar    
   13    7    8 ar    
   14    7   32 1     
   15    8    9 ar    
   16    8   33 1     
   17    9   10 ar    
   18    9   34 1     
   19   10   11 ar    
   20   10   35 1     
   21   11   36 1     
   22   12   28 ar    
   23   12   13 ar    
   24   13   14 ar    
   25   13   37 1     
   26   14   15 1     
   27   14   26 ar    
   28   15   16 am    
   29   15   38 1     
   30   16   17 2     
   31   16   18 1     
   32   18   25 1     
   33   18   19 1     
   34   18   39 1     
   35   19   20 1     
   36   19   40 1     
   37   19   41 1     
   38   20   21 1     
   39   20   42 1     
   40   20   43 1     
   41   21   22 1     
   42   21   23 1     
   43   21   24 1     
   44   24   25 1     
   45   24   44 1     
   46   24   45 1     
   47   25   46 1     
   48   25   47 1     
   49   26   27 ar    
   50   26   48 1     
   51   27   28 ar    
   52   27   49 1     
@<TRIPOS>SUBSTRUCTURE
      1 ****           1
@<TRIPOS>SET
DONOR_HYDROGENS      STATIC     ATOMS    <user>   **** ""
3 38 22 23
ATOM$RED        STATIC     ATOMS    COLORGROUP SYSTEM
3 38 22 23
