#       Name:                TYE
#       Creating user name   gbret
#       Creation time:       Fri Sep  9 17:25:05 2016


#       File generated by GOLD software.
#

@<TRIPOS>MOLECULE
TYE
    26    26     1
SMALL
NO_CHARGES


@<TRIPOS>ATOM
      1 N1          -0.8731  -0.6641  -1.7131 N.4            1 <1>                0.0000
      2 H2          -0.8594  -1.6730  -1.7187 H              1 <1>                0.0000
      3 H3           0.0735  -0.3148  -1.7203 H              1 <1>                0.0000
      4 H4          -1.3611  -0.3298  -2.5306 H              1 <1>                0.0000
      5 C5          -1.5607  -0.1903  -0.5045 C.3            1 <1>                0.0000
      6 C6          -2.9961  -0.7199  -0.4937 C.3            1 <1>                0.0000
      7 O7          -3.7209  -0.1539  -1.5874 O.3            1 <1>                0.0000
      8 C8          -0.8207  -0.6972   0.7350 C.3            1 <1>                0.0000
      9 C9           0.5521  -0.0779   0.7887 C.ar           1 <1>                0.0000
     10 C10          1.6178  -0.7074   0.1724 C.ar           1 <1>                0.0000
     11 C11          2.8772  -0.1417   0.2201 C.ar           1 <1>                0.0000
     12 C12          3.0722   1.0592   0.8869 C.ar           1 <1>                0.0000
     13 O13          4.3101   1.6178   0.9349 O.3            1 <1>                0.0000
     14 C14          2.0012   1.6890   1.5041 C.ar           1 <1>                0.0000
     15 C15          0.7428   1.1217   1.4493 C.ar           1 <1>                0.0000
     16 H16         -1.5755   0.8996  -0.4985 H              1 <1>                0.0000
     17 H17         -2.9835  -1.8056  -0.5892 H              1 <1>                0.0000
     18 H18         -3.4784  -0.4432   0.4439 H              1 <1>                0.0000
     19 H19         -4.6410  -0.4461  -1.6427 H              1 <1>                0.0000
     20 H20         -1.3790  -0.4213   1.6296 H              1 <1>                0.0000
     21 H21         -0.7282  -1.7821   0.6846 H              1 <1>                0.0000
     22 H22          1.4655  -1.6422  -0.3465 H              1 <1>                0.0000
     23 H23          3.7094  -0.6341  -0.2608 H              1 <1>                0.0000
     24 H24          4.4979   2.2213   0.2030 H              1 <1>                0.0000
     25 H25          2.1505   2.6238   2.0240 H              1 <1>                0.0000
     26 H26         -0.0914   1.6118   1.9294 H              1 <1>                0.0000
@<TRIPOS>BOND
    1    1    2 1     
    2    1    3 1     
    3    1    4 1     
    4    1    5 1     
    5    5    6 1     
    6    5    8 1     
    7    5   16 1     
    8    6    7 1     
    9    6   17 1     
   10    6   18 1     
   11    7   19 1     
   12    8    9 1     
   13    8   20 1     
   14    8   21 1     
   15    9   15 ar    
   16    9   10 ar    
   17   10   11 ar    
   18   10   22 1     
   19   11   12 ar    
   20   11   23 1     
   21   12   13 1     
   22   12   14 ar    
   23   13   24 1     
   24   14   15 ar    
   25   14   25 1     
   26   15   26 1     
@<TRIPOS>SUBSTRUCTURE
      1 ****           1
@<TRIPOS>SET
DONOR_HYDROGENS      STATIC     ATOMS    <user>   **** ""
5 2 3 4 19 24
ATOM$RED        STATIC     ATOMS    COLORGROUP SYSTEM
5 2 3 4 19 24
