#       Name:                UC1
#       Creating user name   gbret
#       Creation time:       Fri Sep  9 17:34:47 2016


#       File generated by GOLD software.
#

@<TRIPOS>MOLECULE
UC1
    40    41     1
SMALL
NO_CHARGES


@<TRIPOS>ATOM
      1 C1          -1.1836  -1.6622   4.0979 C.3            1 <1>                0.0000
      2 C2          -1.0103  -3.1323   3.8155 C.2            1 <1>                0.0000
      3 C3          -1.2288  -4.1414   4.9132 C.3            1 <1>                0.0000
      4 C4          -0.6696  -3.5331   2.6157 C.2            1 <1>                0.0000
      5 C5          -0.4511  -2.5241   1.5179 C.3            1 <1>                0.0000
      6 O6           0.7440  -2.8477   0.8045 O.3            1 <1>                0.0000
      7 C7           1.0882  -2.0303  -0.2256 C.ar           1 <1>                0.0000
      8 C8           0.2954  -0.9375  -0.5383 C.ar           1 <1>                0.0000
      9 C9           0.6499  -0.1044  -1.5905 C.ar           1 <1>                0.0000
     10 N10         -0.1476   0.9995  -1.9085 N.am           1 <1>                0.0000
     11 C11          0.4233   2.1969  -2.1468 C.2            1 <1>                0.0000
     12 S12          2.1289   2.3432  -2.1672 S.2            1 <1>                0.0000
     13 C13         -0.4200   3.3792  -2.3896 C.2            1 <1>                0.0000
     14 C14         -1.8892   3.4356  -2.4023 C.2            1 <1>                0.0000
     15 C15         -2.2073   4.7128  -2.6633 C.2            1 <1>                0.0000
     16 O16         -1.0798   5.4263  -2.8082 O.3            1 <1>                0.0000
     17 C17         -0.0013   4.6528  -2.6441 C.2            1 <1>                0.0000
     18 C18          1.4324   5.1082  -2.7344 C.3            1 <1>                0.0000
     19 C19          1.7980  -0.3682  -2.3270 C.ar           1 <1>                0.0000
     20 C20          2.5859  -1.4585  -2.0131 C.ar           1 <1>                0.0000
     21 C21          2.2375  -2.2865  -0.9615 C.ar           1 <1>                0.0000
     22 Cl22         3.2308  -3.6554  -0.5699 Cl             1 <1>                0.0000
     23 H23         -0.2333  -1.2406   4.4252 H              1 <1>                0.0000
     24 H24         -1.5134  -1.1545   3.1914 H              1 <1>                0.0000
     25 H25         -1.9296  -1.5282   4.8812 H              1 <1>                0.0000
     26 H26         -1.5040  -3.6243   5.8325 H              1 <1>                0.0000
     27 H27         -2.0294  -4.8230   4.6261 H              1 <1>                0.0000
     28 H28         -0.3110  -4.7066   5.0751 H              1 <1>                0.0000
     29 H29         -0.5454  -4.5867   2.4133 H              1 <1>                0.0000
     30 H30         -1.2992  -2.5425   0.8334 H              1 <1>                0.0000
     31 H31         -0.3566  -1.5290   1.9526 H              1 <1>                0.0000
     32 H32         -0.5968  -0.7345   0.0354 H              1 <1>                0.0000
     33 H33         -1.1116   0.9034  -1.9576 H              1 <1>                0.0000
     34 H34         -2.5728   2.6163  -2.2358 H              1 <1>                0.0000
     35 H35         -3.2106   5.1042  -2.7443 H              1 <1>                0.0000
     36 H36          1.4615   6.1749  -2.9565 H              1 <1>                0.0000
     37 H37          1.9335   4.9210  -1.7847 H              1 <1>                0.0000
     38 H38          1.9391   4.5580  -3.5273 H              1 <1>                0.0000
     39 H39          2.0745   0.2795  -3.1458 H              1 <1>                0.0000
     40 H40          3.4778  -1.6622  -2.5869 H              1 <1>                0.0000
@<TRIPOS>BOND
    1    1    2 1     
    2    1   23 1     
    3    1   24 1     
    4    1   25 1     
    5    2    3 1     
    6    2    4 2     
    7    3   26 1     
    8    3   27 1     
    9    3   28 1     
   10    4    5 1     
   11    4   29 1     
   12    5    6 1     
   13    5   30 1     
   14    5   31 1     
   15    6    7 1     
   16    7   21 ar    
   17    7    8 ar    
   18    8    9 ar    
   19    8   32 1     
   20    9   10 1     
   21    9   19 ar    
   22   10   11 am    
   23   10   33 1     
   24   11   12 2     
   25   11   13 1     
   26   13   17 2     
   27   13   14 1     
   28   14   15 2     
   29   14   34 1     
   30   15   16 1     
   31   15   35 1     
   32   16   17 1     
   33   17   18 1     
   34   18   36 1     
   35   18   37 1     
   36   18   38 1     
   37   19   20 ar    
   38   19   39 1     
   39   20   21 ar    
   40   20   40 1     
   41   21   22 1     
@<TRIPOS>SUBSTRUCTURE
      1 ****           1
@<TRIPOS>SET
DONOR_HYDROGENS      STATIC     ATOMS    <user>   **** ""
1 33
ATOM$RED        STATIC     ATOMS    COLORGROUP SYSTEM
1 33
