#       Name:                UD5
#       Creating user name   gbret
#       Creation time:       Fri Sep  9 17:36:15 2016


#       File generated by GOLD software.
#

@<TRIPOS>MOLECULE
UD5
    33    34     1
SMALL
NO_CHARGES


@<TRIPOS>ATOM
      1 O1           1.3794   2.4607  -1.1985 O.3            1 <1>                0.0000
      2 C2           1.3988   1.0318  -1.2064 C.3            1 <1>                0.0000
      3 C3           1.9515   0.4722   0.1328 C.3            1 <1>                0.0000
      4 O4           2.9669   1.3276   0.6610 O.3            1 <1>                0.0000
      5 C5           0.6987   0.4845   1.0349 C.3            1 <1>                0.0000
      6 O6          -0.4504   0.4972   0.1798 O.3            1 <1>                0.0000
      7 C7          -0.0388   0.4538  -1.1958 C.3            1 <1>                0.0000
      8 C8          -0.9648   1.3174  -2.0547 C.3            1 <1>                0.0000
      9 O9          -2.2722   0.7409  -2.0732 O.3            1 <1>                0.0000
     10 P10         -3.5045   1.3881  -2.8824 P.3            1 <1>                0.0000
     11 O11         -3.3666   0.6823  -4.3228 O.3            1 <1>                0.0000
     12 O12         -4.7651   0.6126  -2.2488 O.3            1 <1>                0.0000
     13 N13          0.6796  -0.7154   1.8752 N.am           1 <1>                0.0000
     14 C14          0.5538  -1.9501   1.2932 C.2            1 <1>                0.0000
     15 C15          0.5368  -3.0558   2.0687 C.2            1 <1>                0.0000
     16 F16          0.4140  -4.2807   1.5123 F              1 <1>                0.0000
     17 C17          0.6499  -2.9133   3.4744 C.2            1 <1>                0.0000
     18 O18          0.6374  -3.8953   4.1946 O.2            1 <1>                0.0000
     19 N19          0.7719  -1.6806   4.0069 N.am           1 <1>                0.0000
     20 H20          0.8501  -1.5754   4.9681 H              1 <1>                0.0000
     21 C21          0.7912  -0.5957   3.2106 C.2            1 <1>                0.0000
     22 O22          0.9022   0.5092   3.7059 O.2            1 <1>                0.0000
     23 H23          2.2573   2.8660  -1.2047 H              1 <1>                0.0000
     24 H24          1.9679   0.6538  -2.0556 H              1 <1>                0.0000
     25 H25          2.3297  -0.5418   0.0028 H              1 <1>                0.0000
     26 H26          3.7392   1.4225   0.0867 H              1 <1>                0.0000
     27 H27          0.7031   1.3762   1.6616 H              1 <1>                0.0000
     28 H28         -0.0358  -0.5744  -1.5575 H              1 <1>                0.0000
     29 H29         -1.0166   2.3222  -1.6356 H              1 <1>                0.0000
     30 H30         -0.5753   1.3674  -3.0715 H              1 <1>                0.0000
     31 H31         -4.0403   0.9553  -4.9606 H              1 <1>                0.0000
     32 H32         -5.6173   0.8766  -2.6219 H              1 <1>                0.0000
     33 H33          0.4685  -2.0383   0.2202 H              1 <1>                0.0000
@<TRIPOS>BOND
    1    1    2 1     
    2    1   23 1     
    3    2    7 1     
    4    2    3 1     
    5    2   24 1     
    6    3    4 1     
    7    3    5 1     
    8    3   25 1     
    9    4   26 1     
   10    5    6 1     
   11    5   13 1     
   12    5   27 1     
   13    6    7 1     
   14    7    8 1     
   15    7   28 1     
   16    8    9 1     
   17    8   29 1     
   18    8   30 1     
   19    9   10 1     
   20   10   11 1     
   21   10   12 1     
   22   11   31 1     
   23   12   32 1     
   24   13   21 1     
   25   13   14 1     
   26   14   15 2     
   27   14   33 1     
   28   15   16 1     
   29   15   17 1     
   30   17   18 2     
   31   17   19 1     
   32   19   20 1     
   33   19   21 1     
   34   21   22 2     
@<TRIPOS>SUBSTRUCTURE
      1 ****           1
@<TRIPOS>SET
DONOR_HYDROGENS      STATIC     ATOMS    <user>   **** ""
5 23 26 31 32 20
ATOM$RED        STATIC     ATOMS    COLORGROUP SYSTEM
5 23 26 31 32 20
