#       Name:                UDM
#       Creating user name   gbret
#       Creation time:       Fri Sep  9 17:37:00 2016


#       File generated by GOLD software.
#

@<TRIPOS>MOLECULE
UDM
    66    68     1
SMALL
NO_CHARGES


@<TRIPOS>ATOM
      1 C1           3.5801   1.8062   4.1412 C.3            1 <1>                0.0000
      2 C2           3.5543   0.2995   4.1608 C.2            1 <1>                0.0000
      3 O3           4.5920  -0.3239   4.2338 O.2            1 <1>                0.0000
      4 N4           2.3779  -0.3551   4.0971 N.am           1 <1>                0.0000
      5 C5           2.3528  -1.8198   4.1162 C.3            1 <1>                0.0000
      6 C6           2.3728  -2.3133   5.5661 C.3            1 <1>                0.0000
      7 O7           3.5241  -1.7916   6.2328 O.3            1 <1>                0.0000
      8 C8           1.1055  -1.8280   6.2766 C.3            1 <1>                0.0000
      9 O9           1.0970  -0.3996   6.3153 O.3            1 <1>                0.0000
     10 C10         -0.1225  -2.3264   5.5101 C.3            1 <1>                0.0000
     11 C11         -1.3918  -1.7957   6.1795 C.3            1 <1>                0.0000
     12 O12         -2.5389  -2.3540   5.5357 O.3            1 <1>                0.0000
     13 O13         -0.0632  -1.8576   4.1615 O.3            1 <1>                0.0000
     14 C14          1.0767  -2.3185   3.4332 C.3            1 <1>                0.0000
     15 C15          1.0199  -1.7798   2.0023 C.3            1 <1>                0.0000
     16 P16         -0.4217  -2.4906   1.1421 P.3            1 <1>                0.0000
     17 O17         -0.2335  -4.0172   0.9969 O.co2          1 <1>                0.0000
     18 O18         -1.7014  -2.2049   1.9592 O.co2          1 <1>                0.0000
     19 O19         -0.5573  -1.8254  -0.3177 O.3            1 <1>                0.0000
     20 P20         -1.5884  -2.0114  -1.5402 P.3            1 <1>                0.0000
     21 O21         -1.2887  -3.3403  -2.2691 O.co2          1 <1>                0.0000
     22 O22         -3.0339  -2.0376  -0.9952 O.co2          1 <1>                0.0000
     23 O23         -1.4256  -0.7854  -2.5709 O.3            1 <1>                0.0000
     24 C24         -2.2728  -0.6065  -3.7077 C.3            1 <1>                0.0000
     25 C25         -1.8459   0.6498  -4.4693 C.3            1 <1>                0.0000
     26 O26         -0.5671   0.4409  -5.1072 O.3            1 <1>                0.0000
     27 C27         -0.4987   1.4313  -6.1561 C.3            1 <1>                0.0000
     28 C28         -1.9178   1.4593  -6.7657 C.3            1 <1>                0.0000
     29 O29         -1.9907   0.5987  -7.9042 O.3            1 <1>                0.0000
     30 C30         -2.8245   0.9333  -5.6305 C.3            1 <1>                0.0000
     31 O31         -3.4851  -0.2681  -6.0333 O.3            1 <1>                0.0000
     32 N32         -0.1574   2.7422  -5.5981 N.am           1 <1>                0.0000
     33 C33          0.0403   2.8747  -4.2507 C.2            1 <1>                0.0000
     34 C34          0.3553   4.0829  -3.7366 C.2            1 <1>                0.0000
     35 C35          0.4748   5.1923  -4.6080 C.2            1 <1>                0.0000
     36 O36          0.7584   6.2917  -4.1677 O.2            1 <1>                0.0000
     37 N37          0.2721   5.0202  -5.9299 N.am           1 <1>                0.0000
     38 H38          0.3522   5.7754  -6.5332 H              1 <1>                0.0000
     39 C39         -0.0358   3.8035  -6.4162 C.2            1 <1>                0.0000
     40 O40         -0.2154   3.6632  -7.6105 O.2            1 <1>                0.0000
     41 H41          4.6119   2.1527   4.2002 H              1 <1>                0.0000
     42 H42          3.1285   2.1653   3.2164 H              1 <1>                0.0000
     43 H43          3.0186   2.1903   4.9928 H              1 <1>                0.0000
     44 H44          1.5479   0.1434   4.0388 H              1 <1>                0.0000
     45 H45          3.2239  -2.2060   3.5870 H              1 <1>                0.0000
     46 H46          2.4058  -3.4027   5.5801 H              1 <1>                0.0000
     47 H47          3.6006  -2.0645   7.1573 H              1 <1>                0.0000
     48 H48          1.0852  -2.2200   7.2935 H              1 <1>                0.0000
     49 H49          0.3210  -0.0225   6.7522 H              1 <1>                0.0000
     50 H50         -0.1369  -3.4163   5.5160 H              1 <1>                0.0000
     51 H51         -1.3926  -2.0780   7.2323 H              1 <1>                0.0000
     52 H52         -1.4203  -0.7093   6.0946 H              1 <1>                0.0000
     53 H53         -3.3812  -2.0606   5.9091 H              1 <1>                0.0000
     54 H54          1.0780  -3.4083   3.4117 H              1 <1>                0.0000
     55 H55          0.9295  -0.6938   2.0262 H              1 <1>                0.0000
     56 H56          1.9317  -2.0569   1.4732 H              1 <1>                0.0000
     57 H57         -2.1902  -1.4740  -4.3625 H              1 <1>                0.0000
     58 H58         -3.3059  -0.4977  -3.3774 H              1 <1>                0.0000
     59 H59         -1.8001   1.5046  -3.7945 H              1 <1>                0.0000
     60 H60          0.2321   1.1366  -6.9092 H              1 <1>                0.0000
     61 H61         -2.1961   2.4771  -7.0391 H              1 <1>                0.0000
     62 H62         -2.8604   0.5779  -8.3265 H              1 <1>                0.0000
     63 H63         -3.5520   1.6915  -5.3405 H              1 <1>                0.0000
     64 H64         -4.0666  -0.1598  -6.7982 H              1 <1>                0.0000
     65 H65         -0.0555   2.0170  -3.6013 H              1 <1>                0.0000
     66 H66          0.5136   4.2014  -2.6749 H              1 <1>                0.0000
@<TRIPOS>BOND
    1    1    2 1     
    2    1   41 1     
    3    1   42 1     
    4    1   43 1     
    5    2    3 2     
    6    2    4 am    
    7    4    5 1     
    8    4   44 1     
    9    5   14 1     
   10    5    6 1     
   11    5   45 1     
   12    6    7 1     
   13    6    8 1     
   14    6   46 1     
   15    7   47 1     
   16    8    9 1     
   17    8   10 1     
   18    8   48 1     
   19    9   49 1     
   20   10   11 1     
   21   10   13 1     
   22   10   50 1     
   23   11   12 1     
   24   11   51 1     
   25   11   52 1     
   26   12   53 1     
   27   13   14 1     
   28   14   15 1     
   29   14   54 1     
   30   15   16 1     
   31   15   55 1     
   32   15   56 1     
   33   16   17 ar    
   34   16   18 ar    
   35   16   19 1     
   36   19   20 1     
   37   20   21 ar    
   38   20   22 ar    
   39   20   23 1     
   40   23   24 1     
   41   24   25 1     
   42   24   57 1     
   43   24   58 1     
   44   25   30 1     
   45   25   26 1     
   46   25   59 1     
   47   26   27 1     
   48   27   28 1     
   49   27   32 1     
   50   27   60 1     
   51   28   29 1     
   52   28   30 1     
   53   28   61 1     
   54   29   62 1     
   55   30   31 1     
   56   30   63 1     
   57   31   64 1     
   58   32   39 1     
   59   32   33 1     
   60   33   34 2     
   61   33   65 1     
   62   34   35 1     
   63   34   66 1     
   64   35   36 2     
   65   35   37 1     
   66   37   38 1     
   67   37   39 1     
   68   39   40 2     
@<TRIPOS>SUBSTRUCTURE
      1 ****           1
@<TRIPOS>SET
DONOR_HYDROGENS      STATIC     ATOMS    <user>   **** ""
7 44 47 49 53 62 64 38
ATOM$RED        STATIC     ATOMS    COLORGROUP SYSTEM
7 44 47 49 53 62 64 38
