#       Name:                UJ6
#       Creating user name   gbret
#       Creation time:       Fri Sep  9 17:40:15 2016


#       File generated by GOLD software.
#

@<TRIPOS>MOLECULE
UJ6
    35    38     1
SMALL
NO_CHARGES


@<TRIPOS>ATOM
      1 O1           2.9587   0.8263  -1.2226 O.co2          1 <1>                0.0000
      2 C2           2.2758   1.1235  -0.2520 C.2            1 <1>                0.0000
      3 O3           2.6446   0.8152   0.8730 O.co2          1 <1>                0.0000
      4 C4           1.0135   1.8572  -0.4373 C.ar           1 <1>                0.0000
      5 C5           0.9887   3.2543  -0.3313 C.ar           1 <1>                0.0000
      6 O6           1.9722   4.1586  -0.0692 O.3            1 <1>                0.0000
      7 C7           1.4476   5.4315  -0.4907 C.3            1 <1>                0.0000
      8 O8           0.0224   5.2745  -0.3582 O.3            1 <1>                0.0000
      9 C9          -0.2116   3.9378  -0.5092 C.ar           1 <1>                0.0000
     10 C10         -1.3715   3.2355  -0.7887 C.ar           1 <1>                0.0000
     11 C11         -1.3472   1.8542  -0.8930 C.ar           1 <1>                0.0000
     12 C12         -0.1673   1.1638  -0.7261 C.ar           1 <1>                0.0000
     13 C13         -0.1503  -0.3387  -0.8414 C.3            1 <1>                0.0000
     14 C14         -0.1882  -0.9579   0.5571 C.3            1 <1>                0.0000
     15 C15         -1.5459  -0.7486   1.1933 C.2            1 <1>                0.0000
     16 O16         -2.0659   0.3173   1.4475 O.2            1 <1>                0.0000
     17 N17         -2.0670  -1.9658   1.4226 N.am           1 <1>                0.0000
     18 C18         -1.2142  -2.9913   1.0128 C.ar           1 <1>                0.0000
     19 C19         -1.3630  -4.3760   1.0660 C.ar           1 <1>                0.0000
     20 C20         -0.3634  -5.1986   0.5900 C.ar           1 <1>                0.0000
     21 C21          0.7925  -4.6580   0.0567 C.ar           1 <1>                0.0000
     22 C22          0.9474  -3.2839   0.0001 C.ar           1 <1>                0.0000
     23 C23         -0.0487  -2.4606   0.4749 C.ar           1 <1>                0.0000
     24 H24          1.8074   6.2286   0.1600 H              1 <1>                0.0000
     25 H25          1.7160   5.6320  -1.5280 H              1 <1>                0.0000
     26 H26         -2.3012   3.7677  -0.9259 H              1 <1>                0.0000
     27 H27         -2.2578   1.3162  -1.1112 H              1 <1>                0.0000
     28 H28         -1.0201  -0.6694  -1.4089 H              1 <1>                0.0000
     29 H29          0.7589  -0.6535  -1.3537 H              1 <1>                0.0000
     30 H30          0.5981  -0.5351   1.1824 H              1 <1>                0.0000
     31 H31         -2.9362  -2.1144   1.8267 H              1 <1>                0.0000
     32 H32         -2.2627  -4.8057   1.4811 H              1 <1>                0.0000
     33 H33         -0.4838  -6.2710   0.6344 H              1 <1>                0.0000
     34 H34          1.5724  -5.3065  -0.3143 H              1 <1>                0.0000
     35 H35          1.8487  -2.8580  -0.4154 H              1 <1>                0.0000
@<TRIPOS>BOND
    1    1    2 ar    
    2    2    3 ar    
    3    2    4 1     
    4    4   12 ar    
    5    4    5 ar    
    6    5    9 ar    
    7    5    6 1     
    8    6    7 1     
    9    7    8 1     
   10    7   24 1     
   11    7   25 1     
   12    8    9 1     
   13    9   10 ar    
   14   10   11 ar    
   15   10   26 1     
   16   11   12 ar    
   17   11   27 1     
   18   12   13 1     
   19   13   14 1     
   20   13   28 1     
   21   13   29 1     
   22   14   23 1     
   23   14   15 1     
   24   14   30 1     
   25   15   16 2     
   26   15   17 am    
   27   17   18 1     
   28   17   31 1     
   29   18   23 ar    
   30   18   19 ar    
   31   19   20 ar    
   32   19   32 1     
   33   20   21 ar    
   34   20   33 1     
   35   21   22 ar    
   36   21   34 1     
   37   22   23 ar    
   38   22   35 1     
@<TRIPOS>SUBSTRUCTURE
      1 ****           1
@<TRIPOS>SET
DONOR_HYDROGENS      STATIC     ATOMS    <user>   **** ""
1 31
ATOM$RED        STATIC     ATOMS    COLORGROUP SYSTEM
1 31
