#       Name:                UN4
#       Creating user name   gbret
#       Creation time:       Fri Sep  9 17:42:25 2016


#       File generated by GOLD software.
#

@<TRIPOS>MOLECULE
UN4
    30    32     1
SMALL
NO_CHARGES


@<TRIPOS>ATOM
      1 N1           2.4923   3.4727   0.2833 N.pl3          1 <1>                0.0000
      2 C2           2.5111   2.0876   0.2757 C.ar           1 <1>                0.0000
      3 N3           1.3576   1.4308   0.2778 N.ar           1 <1>                0.0000
      4 C4           1.3229   0.1050   0.2707 C.ar           1 <1>                0.0000
      5 O5           0.1404  -0.5558   0.2725 O.3            1 <1>                0.0000
      6 C6          -1.0470   0.2391   0.2822 C.3            1 <1>                0.0000
      7 C7          -2.2733  -0.6758   0.2827 C.3            1 <1>                0.0000
      8 C8          -3.5673   0.1647   0.3564 C.3            1 <1>                0.0000
      9 C9          -4.5297  -0.6599  -0.5295 C.3            1 <1>                0.0000
     10 C10         -3.6141  -1.4254  -1.4592 C.2            1 <1>                0.0000
     11 O11         -3.9633  -1.9699  -2.4851 O.2            1 <1>                0.0000
     12 N12         -2.3571  -1.4135  -0.9833 N.am           1 <1>                0.0000
     13 C13          2.5372  -0.5990   0.2610 C.ar           1 <1>                0.0000
     14 N14          2.8757  -1.9122   0.2522 N.2            1 <1>                0.0000
     15 C15          4.1716  -2.0252   0.2453 C.2            1 <1>                0.0000
     16 N16          4.7474  -0.7883   0.2492 N.pl3          1 <1>                0.0000
     17 H17          5.6985  -0.5980   0.2456 H              1 <1>                0.0000
     18 C18          3.7344   0.1369   0.2591 C.ar           1 <1>                0.0000
     19 N19          3.6780   1.4645   0.2612 N.ar           1 <1>                0.0000
     20 H20          3.3256   3.9691   0.2780 H              1 <1>                0.0000
     21 H21          1.6458   3.9462   0.2899 H              1 <1>                0.0000
     22 H22         -1.0590   0.8634   1.1756 H              1 <1>                0.0000
     23 H23         -1.0670   0.8731  -0.6043 H              1 <1>                0.0000
     24 H24         -2.2247  -1.3702   1.1215 H              1 <1>                0.0000
     25 H25         -3.9353   0.2253   1.3806 H              1 <1>                0.0000
     26 H26         -3.4103   1.1599  -0.0597 H              1 <1>                0.0000
     27 H27         -5.1152  -1.3476   0.0808 H              1 <1>                0.0000
     28 H28         -5.1852   0.0001  -1.0977 H              1 <1>                0.0000
     29 H29         -1.6023  -1.8378  -1.4205 H              1 <1>                0.0000
     30 H30          4.7120  -2.9602   0.2379 H              1 <1>                0.0000
@<TRIPOS>BOND
    1    1    2 1     
    2    1   20 1     
    3    1   21 1     
    4    2   19 ar    
    5    2    3 ar    
    6    3    4 ar    
    7    4    5 1     
    8    4   13 ar    
    9    5    6 1     
   10    6    7 1     
   11    6   22 1     
   12    6   23 1     
   13    7   12 1     
   14    7    8 1     
   15    7   24 1     
   16    8    9 1     
   17    8   25 1     
   18    8   26 1     
   19    9   10 1     
   20    9   27 1     
   21    9   28 1     
   22   10   11 2     
   23   10   12 am    
   24   12   29 1     
   25   13   18 ar    
   26   13   14 1     
   27   14   15 2     
   28   15   16 1     
   29   15   30 1     
   30   16   17 1     
   31   16   18 1     
   32   18   19 ar    
@<TRIPOS>SUBSTRUCTURE
      1 ****           1
@<TRIPOS>SET
DONOR_HYDROGENS      STATIC     ATOMS    <user>   **** ""
4 20 21 29 17
ATOM$RED        STATIC     ATOMS    COLORGROUP SYSTEM
4 20 21 29 17
