#       Name:                UNE
#       Creating user name   gbret
#       Creation time:       Fri Sep  9 17:43:02 2016


#       File generated by GOLD software.
#

@<TRIPOS>MOLECULE
UNE
    21    22     1
SMALL
NO_CHARGES


@<TRIPOS>ATOM
      1 C1           1.5576   3.1081  -0.0017 C.3            1 <1>                0.0000
      2 O2           1.5770   1.6792  -0.0096 O.3            1 <1>                0.0000
      3 C3           0.3741   1.0455  -0.0015 C.ar           1 <1>                0.0000
      4 C4          -0.7968   1.7803   0.0078 C.ar           1 <1>                0.0000
      5 C5          -2.0318   1.1453   0.0157 C.ar           1 <1>                0.0000
      6 Br6         -3.6171   2.1761   0.0284 Br             1 <1>                0.0000
      7 C7          -2.1098  -0.2192   0.0138 C.ar           1 <1>                0.0000
      8 C8          -0.9381  -0.9824   0.0044 C.ar           1 <1>                0.0000
      9 C9          -0.6581  -2.4168  -0.0006 C.2            1 <1>                0.0000
     10 C10          0.6973  -2.5361  -0.0104 C.2            1 <1>                0.0000
     11 O11          1.2613  -1.3098  -0.0117 O.3            1 <1>                0.0000
     12 C12          0.3172  -0.3480  -0.0084 C.ar           1 <1>                0.0000
     13 C13          1.4329  -3.8033  -0.0178 C.2            1 <1>                0.0000
     14 O14          0.8232  -4.8651  -0.0154 O.co2          1 <1>                0.0000
     15 O15          2.6572  -3.8005  -0.0264 O.co2          1 <1>                0.0000
     16 H16          2.5802   3.4854  -0.0095 H              1 <1>                0.0000
     17 H17          1.0304   3.4692  -0.8848 H              1 <1>                0.0000
     18 H18          1.0474   3.4596   0.8951 H              1 <1>                0.0000
     19 H19         -0.7506   2.8593   0.0094 H              1 <1>                0.0000
     20 H20         -3.0736  -0.7066   0.0199 H              1 <1>                0.0000
     21 H21         -1.3807  -3.2195   0.0030 H              1 <1>                0.0000
@<TRIPOS>BOND
    1    1    2 1     
    2    1   16 1     
    3    1   17 1     
    4    1   18 1     
    5    2    3 1     
    6    3   12 ar    
    7    3    4 ar    
    8    4    5 ar    
    9    4   19 1     
   10    5    6 1     
   11    5    7 ar    
   12    7    8 ar    
   13    7   20 1     
   14    8   12 ar    
   15    8    9 1     
   16    9   10 2     
   17    9   21 1     
   18   10   11 1     
   19   10   13 1     
   20   11   12 1     
   21   13   14 ar    
   22   13   15 ar    
@<TRIPOS>SUBSTRUCTURE
      1 ****           1
