#       Name:                UNN
#       Creating user name   gbret
#       Creation time:       Fri Sep  9 17:43:35 2016


#       File generated by GOLD software.
#

@<TRIPOS>MOLECULE
UNN
    47    50     1
SMALL
NO_CHARGES


@<TRIPOS>ATOM
      1 C1           0.5026   2.3458   0.9686 C.3            1 <1>                0.0000
      2 C2           0.0373   0.9617   0.5118 C.3            1 <1>                0.0000
      3 N3           0.7203   0.6033  -0.7337 N.pl3          1 <1>                0.0000
      4 C4           0.2141   1.0275  -1.9443 C.ar           1 <1>                0.0000
      5 N5          -0.8869   1.7653  -2.0015 N.ar           1 <1>                0.0000
      6 C6          -1.3826   2.1791  -3.1567 C.ar           1 <1>                0.0000
      7 N7          -0.8313   1.8952  -4.3127 N.ar           1 <1>                0.0000
      8 C8           0.2861   1.1547  -4.3697 C.ar           1 <1>                0.0000
      9 C9           0.9009   0.8336  -5.5868 C.ar           1 <1>                0.0000
     10 C10          2.0372   0.0771  -5.5894 C.ar           1 <1>                0.0000
     11 F11          2.6291  -0.2313  -6.7640 F              1 <1>                0.0000
     12 C12          2.5970  -0.3824  -4.3951 C.ar           1 <1>                0.0000
     13 F13          3.7225  -1.1289  -4.4296 F              1 <1>                0.0000
     14 C14          2.0214  -0.0862  -3.1936 C.ar           1 <1>                0.0000
     15 C15          0.8585   0.6924  -3.1592 C.ar           1 <1>                0.0000
     16 C16          0.3703  -0.0703   1.5911 C.3            1 <1>                0.0000
     17 C17         -0.3323   0.2983   2.8724 C.ar           1 <1>                0.0000
     18 C18          0.3855   0.4020   4.0492 C.ar           1 <1>                0.0000
     19 C19         -0.2589   0.7401   5.2244 C.ar           1 <1>                0.0000
     20 C20         -1.6212   0.9750   5.2228 C.ar           1 <1>                0.0000
     21 C21         -2.3389   0.8722   4.0458 C.ar           1 <1>                0.0000
     22 C22         -1.6937   0.5382   2.8698 C.ar           1 <1>                0.0000
     23 C23         -0.0880  -1.4336   1.1412 C.ar           1 <1>                0.0000
     24 C24         -1.3869  -1.6170   0.7050 C.ar           1 <1>                0.0000
     25 C25         -1.8073  -2.8675   0.2922 C.ar           1 <1>                0.0000
     26 C26         -0.9287  -3.9345   0.3152 C.ar           1 <1>                0.0000
     27 C27          0.3704  -3.7509   0.7506 C.ar           1 <1>                0.0000
     28 C28          0.7920  -2.4995   1.1593 C.ar           1 <1>                0.0000
     29 H29          1.5795   2.3300   1.1363 H              1 <1>                0.0000
     30 H30          0.2653   3.0810   0.1997 H              1 <1>                0.0000
     31 H31         -0.0056   2.6124   1.8953 H              1 <1>                0.0000
     32 H32         -1.0396   0.9774   0.3441 H              1 <1>                0.0000
     33 H33          1.5285   0.0677  -0.7069 H              1 <1>                0.0000
     34 H34         -2.2819   2.7772  -3.1473 H              1 <1>                0.0000
     35 H35          0.4783   1.1822  -6.5175 H              1 <1>                0.0000
     36 H36          2.4620  -0.4466  -2.2758 H              1 <1>                0.0000
     37 H37          1.4472  -0.0861   1.7589 H              1 <1>                0.0000
     38 H38          1.4498   0.2185   4.0504 H              1 <1>                0.0000
     39 H39          0.3018   0.8204   6.1439 H              1 <1>                0.0000
     40 H40         -2.1248   1.2384   6.1411 H              1 <1>                0.0000
     41 H41         -3.4032   1.0553   4.0447 H              1 <1>                0.0000
     42 H42         -2.2544   0.4579   1.9503 H              1 <1>                0.0000
     43 H43         -2.0733  -0.7834   0.6870 H              1 <1>                0.0000
     44 H44         -2.8223  -3.0110  -0.0479 H              1 <1>                0.0000
     45 H45         -1.2574  -4.9117  -0.0066 H              1 <1>                0.0000
     46 H46          1.0567  -4.5846   0.7689 H              1 <1>                0.0000
     47 H47          1.8070  -2.3560   1.4994 H              1 <1>                0.0000
@<TRIPOS>BOND
    1    1    2 1     
    2    1   29 1     
    3    1   30 1     
    4    1   31 1     
    5    2    3 1     
    6    2   16 1     
    7    2   32 1     
    8    3    4 1     
    9    3   33 1     
   10    4   15 ar    
   11    4    5 ar    
   12    5    6 ar    
   13    6    7 ar    
   14    6   34 1     
   15    7    8 ar    
   16    8   15 ar    
   17    8    9 ar    
   18    9   10 ar    
   19    9   35 1     
   20   10   11 1     
   21   10   12 ar    
   22   12   13 1     
   23   12   14 ar    
   24   14   15 ar    
   25   14   36 1     
   26   16   17 1     
   27   16   23 1     
   28   16   37 1     
   29   17   22 ar    
   30   17   18 ar    
   31   18   19 ar    
   32   18   38 1     
   33   19   20 ar    
   34   19   39 1     
   35   20   21 ar    
   36   20   40 1     
   37   21   22 ar    
   38   21   41 1     
   39   22   42 1     
   40   23   28 ar    
   41   23   24 ar    
   42   24   25 ar    
   43   24   43 1     
   44   25   26 ar    
   45   25   44 1     
   46   26   27 ar    
   47   26   45 1     
   48   27   28 ar    
   49   27   46 1     
   50   28   47 1     
@<TRIPOS>SUBSTRUCTURE
      1 ****           1
@<TRIPOS>SET
DONOR_HYDROGENS      STATIC     ATOMS    <user>   **** ""
1 33
ATOM$RED        STATIC     ATOMS    COLORGROUP SYSTEM
1 33
