#       Name:                UNP
#       Creating user name   gbret
#       Creation time:       Fri Sep  9 17:43:39 2016


#       File generated by GOLD software.
#

@<TRIPOS>MOLECULE
UNP
    41    42     1
SMALL
NO_CHARGES


@<TRIPOS>ATOM
      1 O1           2.8820   2.5650  -0.4702 O.3            1 <1>                0.0000
      2 C2           2.9014   1.1361  -0.4781 C.3            1 <1>                0.0000
      3 C3           3.4541   0.5765   0.8611 C.3            1 <1>                0.0000
      4 O4           4.4695   1.4319   1.3893 O.3            1 <1>                0.0000
      5 C5           2.2013   0.5888   1.7632 C.3            1 <1>                0.0000
      6 O6           1.0522   0.6015   0.9081 O.3            1 <1>                0.0000
      7 C7           1.4638   0.5581  -0.4675 C.3            1 <1>                0.0000
      8 C8           0.5378   1.4217  -1.3264 C.3            1 <1>                0.0000
      9 O9          -0.7696   0.8452  -1.3449 O.3            1 <1>                0.0000
     10 P10         -2.0019   1.4924  -2.1541 P.3            1 <1>                0.0000
     11 O11         -2.3578   2.8644  -1.5393 O.co2          1 <1>                0.0000
     12 O12         -1.6040   1.6793  -3.6352 O.co2          1 <1>                0.0000
     13 O13         -3.2779   0.5151  -2.0604 O.3            1 <1>                0.0000
     14 P14         -4.6245   0.3477  -2.9268 P.3            1 <1>                0.0000
     15 O15         -5.4245   1.6690  -2.8956 O.co2          1 <1>                0.0000
     16 O16         -4.2575   0.0023  -4.3873 O.co2          1 <1>                0.0000
     17 N17         -5.5603  -0.8903  -2.2757 N.3            1 <1>                0.0000
     18 P18         -6.9806  -1.0986  -3.1542 P.3            1 <1>                0.0000
     19 O19         -6.6290  -1.4615  -4.6371 O.co2          1 <1>                0.0000
     20 O20         -7.8226  -2.2569  -2.5187 O.co2          1 <1>                0.0000
     21 O21         -7.8124   0.2287  -3.1245 O.co2          1 <1>                0.0000
     22 N22          2.1822  -0.6111   2.6035 N.am           1 <1>                0.0000
     23 C23          2.0566  -1.8436   2.0224 C.2            1 <1>                0.0000
     24 C24          2.0395  -2.9494   2.7969 C.2            1 <1>                0.0000
     25 C25          2.1524  -2.8087   4.2011 C.2            1 <1>                0.0000
     26 O26          2.1398  -3.7915   4.9202 O.2            1 <1>                0.0000
     27 N27          2.2744  -1.5765   4.7349 N.am           1 <1>                0.0000
     28 H28          2.3523  -1.4720   5.6961 H              1 <1>                0.0000
     29 C29          2.2938  -0.4913   3.9389 C.2            1 <1>                0.0000
     30 O30          2.4048   0.6135   4.4343 O.2            1 <1>                0.0000
     31 H31          3.7599   2.9703  -0.4764 H              1 <1>                0.0000
     32 H32          3.4705   0.7581  -1.3273 H              1 <1>                0.0000
     33 H33          3.8323  -0.4375   0.7311 H              1 <1>                0.0000
     34 H34          5.2418   1.5268   0.8150 H              1 <1>                0.0000
     35 H35          2.2057   1.4805   2.3899 H              1 <1>                0.0000
     36 H36          1.4668  -0.4701  -0.8292 H              1 <1>                0.0000
     37 H37          0.4860   2.4265  -0.9073 H              1 <1>                0.0000
     38 H38          0.9273   1.4717  -2.3432 H              1 <1>                0.0000
     39 H39         -5.0366  -1.7513  -2.2255 H              1 <1>                0.0000
     40 H40          1.9713  -1.9313   0.9493 H              1 <1>                0.0000
     41 H41          1.9406  -3.9282   2.3512 H              1 <1>                0.0000
@<TRIPOS>BOND
    1    1    2 1     
    2    1   31 1     
    3    2    7 1     
    4    2    3 1     
    5    2   32 1     
    6    3    4 1     
    7    3    5 1     
    8    3   33 1     
    9    4   34 1     
   10    5    6 1     
   11    5   22 1     
   12    5   35 1     
   13    6    7 1     
   14    7    8 1     
   15    7   36 1     
   16    8    9 1     
   17    8   37 1     
   18    8   38 1     
   19    9   10 1     
   20   10   11 ar    
   21   10   12 ar    
   22   10   13 1     
   23   13   14 1     
   24   14   15 ar    
   25   14   16 ar    
   26   14   17 1     
   27   17   18 1     
   28   17   39 1     
   29   18   19 ar    
   30   18   20 ar    
   31   18   21 ar    
   32   22   29 1     
   33   22   23 1     
   34   23   24 2     
   35   23   40 1     
   36   24   25 1     
   37   24   41 1     
   38   25   26 2     
   39   25   27 1     
   40   27   28 1     
   41   27   29 1     
   42   29   30 2     
@<TRIPOS>SUBSTRUCTURE
      1 ****           1
@<TRIPOS>SET
DONOR_HYDROGENS      STATIC     ATOMS    <user>   **** ""
4 31 34 39 28
ATOM$RED        STATIC     ATOMS    COLORGROUP SYSTEM
4 31 34 39 28
