#       Name:                UNR
#       Creating user name   gbret
#       Creation time:       Fri Sep  9 17:43:48 2016


#       File generated by GOLD software.
#

@<TRIPOS>MOLECULE
UNR
    28    28     1
SMALL
NO_CHARGES


@<TRIPOS>ATOM
      1 C1          -0.7678   3.4366  -1.4492 C.3            1 <1>                0.0000
      2 N2          -0.7479   1.9717  -1.4573 N.pl3          1 <1>                0.0000
      3 C3          -0.7448   1.3359  -2.6127 C.ar           1 <1>                0.0000
      4 C4          -0.7258  -0.0450  -2.6596 C.ar           1 <1>                0.0000
      5 C5          -0.7099  -0.7612  -1.4723 C.ar           1 <1>                0.0000
      6 C6          -0.7138  -0.0582  -0.2775 C.ar           1 <1>                0.0000
      7 C7          -0.6972  -0.7912   1.0391 C.3            1 <1>                0.0000
      8 C8           0.7508  -1.0191   1.4776 C.3            1 <1>                0.0000
      9 O9           1.4077   0.2413   1.6257 O.3            1 <1>                0.0000
     10 P10          0.7710  -1.9057   3.0704 P.3            1 <1>                0.0000
     11 O11         -0.0586  -3.2286   2.9422 O.co2          1 <1>                0.0000
     12 O12          2.2493  -2.2517   3.4568 O.co2          1 <1>                0.0000
     13 O13          0.1395  -0.9989   4.1809 O.co2          1 <1>                0.0000
     14 P14          1.6179  -2.0120   0.2184 P.3            1 <1>                0.0000
     15 O15          1.6006  -1.2501  -1.1504 O.co2          1 <1>                0.0000
     16 O16          3.1006  -2.2455   0.6674 O.co2          1 <1>                0.0000
     17 O17          0.8977  -3.3938   0.0560 O.co2          1 <1>                0.0000
     18 C18         -0.7282   1.3236  -0.3092 C.ar           1 <1>                0.0000
     19 H19          0.2548   3.8139  -1.4570 H              1 <1>                0.0000
     20 H20         -1.2950   3.7977  -2.3323 H              1 <1>                0.0000
     21 H21         -1.2780   3.7881  -0.5524 H              1 <1>                0.0000
     22 H22         -0.7575   1.9011  -3.5330 H              1 <1>                0.0000
     23 H23         -0.7236  -0.5599  -3.6090 H              1 <1>                0.0000
     24 H24         -0.6953  -1.8411  -1.4783 H              1 <1>                0.0000
     25 H25         -1.2156  -0.1975   1.7920 H              1 <1>                0.0000
     26 H26         -1.1982  -1.7525   0.9262 H              1 <1>                0.0000
     27 H27          0.9993   0.8230   2.2813 H              1 <1>                0.0000
     28 H28         -0.7314   1.8787   0.6172 H              1 <1>                0.0000
@<TRIPOS>BOND
    1    1    2 1     
    2    1   19 1     
    3    1   20 1     
    4    1   21 1     
    5    2   18 ar    
    6    2    3 ar    
    7    3    4 ar    
    8    3   22 1     
    9    4    5 ar    
   10    4   23 1     
   11    5    6 ar    
   12    5   24 1     
   13    6    7 1     
   14    6   18 ar    
   15    7    8 1     
   16    7   25 1     
   17    7   26 1     
   18    8    9 1     
   19    8   10 1     
   20    8   14 1     
   21    9   27 1     
   22   10   11 ar    
   23   10   12 ar    
   24   10   13 ar    
   25   14   15 ar    
   26   14   16 ar    
   27   14   17 ar    
   28   18   28 1     
@<TRIPOS>SUBSTRUCTURE
      1 ****           1
@<TRIPOS>SET
DONOR_HYDROGENS      STATIC     ATOMS    <user>   **** ""
1 27
ATOM$RED        STATIC     ATOMS    COLORGROUP SYSTEM
1 27
