#       Name:                UPN
#       Creating user name   gbret
#       Creation time:       Fri Sep  9 17:45:24 2016


#       File generated by GOLD software.
#

@<TRIPOS>MOLECULE
UPN
    70    72     1
SMALL
NO_CHARGES


@<TRIPOS>ATOM
      1 C1          -2.8048   3.1251  -1.4132 C.3            1 <1>                0.0000
      2 C2          -2.9272   1.7142  -1.9285 C.2            1 <1>                0.0000
      3 O3          -2.6895   1.4711  -3.0926 O.2            1 <1>                0.0000
      4 N4          -3.3007   0.7227  -1.0956 N.am           1 <1>                0.0000
      5 C5          -3.4197  -0.6489  -1.5965 C.3            1 <1>                0.0000
      6 C6          -3.1574  -1.6349  -0.4551 C.3            1 <1>                0.0000
      7 O7          -1.8608  -1.3933   0.0948 O.3            1 <1>                0.0000
      8 P8          -0.9602  -2.5511   0.7586 P.3            1 <1>                0.0000
      9 O9          -1.6598  -3.0831   2.0292 O.co2          1 <1>                0.0000
     10 O10         -0.7796  -3.7060  -0.2517 O.co2          1 <1>                0.0000
     11 O11          0.4814  -1.9510   1.1510 O.3            1 <1>                0.0000
     12 P12          1.9221  -2.6055   1.4477 P.3            1 <1>                0.0000
     13 O13          1.9114  -3.2622   2.8461 O.co2          1 <1>                0.0000
     14 O14          2.2313  -3.6766   0.3780 O.co2          1 <1>                0.0000
     15 O15          3.0519  -1.4594   1.4016 O.3            1 <1>                0.0000
     16 C16          4.4483  -1.7377   1.5225 C.3            1 <1>                0.0000
     17 C17          5.2383  -0.4302   1.4372 C.3            1 <1>                0.0000
     18 O18          5.0125   0.3715   2.6171 O.3            1 <1>                0.0000
     19 C19          6.1289   1.2858   2.6752 C.3            1 <1>                0.0000
     20 C20          7.3555   0.4372   2.2731 C.3            1 <1>                0.0000
     21 O21          8.0141  -0.0725   3.4343 O.3            1 <1>                0.0000
     22 C22          6.7561  -0.7177   1.4399 C.3            1 <1>                0.0000
     23 O23          7.0262  -1.9760   2.0611 O.3            1 <1>                0.0000
     24 N24          5.9370   2.3860   1.7271 N.am           1 <1>                0.0000
     25 C25          4.8234   2.4093   0.9323 C.2            1 <1>                0.0000
     26 C26          4.6463   3.4235   0.0588 C.2            1 <1>                0.0000
     27 C27          5.6223   4.4464  -0.0160 C.2            1 <1>                0.0000
     28 O28          5.4843   5.3716  -0.7958 O.2            1 <1>                0.0000
     29 N29          6.7057   4.3870   0.7844 N.am           1 <1>                0.0000
     30 H30          7.3787   5.0841   0.7390 H              1 <1>                0.0000
     31 C31          6.8545   3.3670   1.6499 C.2            1 <1>                0.0000
     32 O32          7.8365   3.3268   2.3658 O.2            1 <1>                0.0000
     33 O33         -4.1465  -1.4591   0.5612 O.3            1 <1>                0.0000
     34 C34         -5.4842  -1.7031   0.1219 C.3            1 <1>                0.0000
     35 C35         -6.4488  -1.5134   1.2943 C.3            1 <1>                0.0000
     36 O36         -6.1907  -2.5063   2.2890 O.3            1 <1>                0.0000
     37 C37         -5.8400  -0.7198  -0.9962 C.3            1 <1>                0.0000
     38 O38         -5.7881   0.6162  -0.4917 O.3            1 <1>                0.0000
     39 C39         -4.8337  -0.8743  -2.1407 C.3            1 <1>                0.0000
     40 O40         -5.1140   0.0902  -3.1572 O.3            1 <1>                0.0000
     41 C41         -6.0467  -0.2470  -4.0880 C.2            1 <1>                0.0000
     42 C42         -6.7284  -1.3890  -3.9670 C.2            1 <1>                0.0000
     43 C43         -6.3046   0.6463  -5.2282 C.2            1 <1>                0.0000
     44 O44         -7.1437   0.3429  -6.0655 O.co2          1 <1>                0.0000
     45 O45         -5.6801   1.6926  -5.3391 O.co2          1 <1>                0.0000
     46 H46         -2.4946   3.7828  -2.2251 H              1 <1>                0.0000
     47 H47         -3.7688   3.4555  -1.0262 H              1 <1>                0.0000
     48 H48         -2.0626   3.1576  -0.6156 H              1 <1>                0.0000
     49 H49         -3.4909   0.9172  -0.1645 H              1 <1>                0.0000
     50 H50         -2.6929  -0.8102  -2.3927 H              1 <1>                0.0000
     51 H51         -3.2059  -2.6546  -0.8373 H              1 <1>                0.0000
     52 H52          4.6415  -2.2170   2.4823 H              1 <1>                0.0000
     53 H53          4.7575  -2.4023   0.7158 H              1 <1>                0.0000
     54 H54          4.9585   0.1235   0.5410 H              1 <1>                0.0000
     55 H55          6.2504   1.6726   3.6870 H              1 <1>                0.0000
     56 H56          8.0468   1.0266   1.6708 H              1 <1>                0.0000
     57 H57          8.7920  -0.6131   3.2398 H              1 <1>                0.0000
     58 H58          7.1499  -0.7000   0.4237 H              1 <1>                0.0000
     59 H59          7.9679  -2.1797   2.1437 H              1 <1>                0.0000
     60 H60          4.0897   1.6199   1.0031 H              1 <1>                0.0000
     61 H61          3.7721   3.4539  -0.5746 H              1 <1>                0.0000
     62 H62         -5.5634  -2.7237  -0.2525 H              1 <1>                0.0000
     63 H63         -6.3068  -0.5221   1.7249 H              1 <1>                0.0000
     64 H64         -7.4750  -1.6121   0.9401 H              1 <1>                0.0000
     65 H65         -6.7668  -2.4464   3.0634 H              1 <1>                0.0000
     66 H66         -6.8446  -0.9322  -1.3621 H              1 <1>                0.0000
     67 H67         -6.3975   0.7842   0.2400 H              1 <1>                0.0000
     68 H68         -4.9079  -1.8783  -2.5584 H              1 <1>                0.0000
     69 H69         -7.3914  -1.7085  -4.7573 H              1 <1>                0.0000
     70 H70         -6.6166  -1.9931  -3.0787 H              1 <1>                0.0000
@<TRIPOS>BOND
    1    1    2 1     
    2    1   46 1     
    3    1   47 1     
    4    1   48 1     
    5    2    3 2     
    6    2    4 am    
    7    4    5 1     
    8    4   49 1     
    9    5   39 1     
   10    5    6 1     
   11    5   50 1     
   12    6    7 1     
   13    6   33 1     
   14    6   51 1     
   15    7    8 1     
   16    8    9 ar    
   17    8   10 ar    
   18    8   11 1     
   19   11   12 1     
   20   12   13 ar    
   21   12   14 ar    
   22   12   15 1     
   23   15   16 1     
   24   16   17 1     
   25   16   52 1     
   26   16   53 1     
   27   17   22 1     
   28   17   18 1     
   29   17   54 1     
   30   18   19 1     
   31   19   20 1     
   32   19   24 1     
   33   19   55 1     
   34   20   21 1     
   35   20   22 1     
   36   20   56 1     
   37   21   57 1     
   38   22   23 1     
   39   22   58 1     
   40   23   59 1     
   41   24   31 1     
   42   24   25 1     
   43   25   26 2     
   44   25   60 1     
   45   26   27 1     
   46   26   61 1     
   47   27   28 2     
   48   27   29 1     
   49   29   30 1     
   50   29   31 1     
   51   31   32 2     
   52   33   34 1     
   53   34   35 1     
   54   34   37 1     
   55   34   62 1     
   56   35   36 1     
   57   35   63 1     
   58   35   64 1     
   59   36   65 1     
   60   37   38 1     
   61   37   39 1     
   62   37   66 1     
   63   38   67 1     
   64   39   40 1     
   65   39   68 1     
   66   40   41 1     
   67   41   42 2     
   68   41   43 1     
   69   42   69 1     
   70   42   70 1     
   71   43   44 ar    
   72   43   45 ar    
@<TRIPOS>SUBSTRUCTURE
      1 ****           1
@<TRIPOS>SET
DONOR_HYDROGENS      STATIC     ATOMS    <user>   **** ""
6 49 57 59 30 65 67
ATOM$RED        STATIC     ATOMS    COLORGROUP SYSTEM
6 49 57 59 30 65 67
