#       Name:                UUD
#       Creating user name   gbret
#       Creation time:       Fri Sep  9 17:48:35 2016


#       File generated by GOLD software.
#

@<TRIPOS>MOLECULE
UUD
    21    22     1
SMALL
NO_CHARGES


@<TRIPOS>ATOM
      1 C1           1.0712   4.5200   0.0167 C.3            1 <1>                0.0000
      2 C2           1.0917   3.0131   0.0084 C.2            1 <1>                0.0000
      3 O3           2.1529   2.4195  -0.0049 O.2            1 <1>                0.0000
      4 N4          -0.0499   2.3332   0.0157 N.2            1 <1>                0.0000
      5 C5          -0.0318   1.0020   0.0083 C.2            1 <1>                0.0000
      6 N6          -1.1246   0.2314   0.0093 N.pl3          1 <1>                0.0000
      7 H7          -2.0196   0.6055   0.0158 H              1 <1>                0.0000
      8 C8          -0.8983  -1.1300   0.0000 C.ar           1 <1>                0.0000
      9 C9          -1.8290  -2.1768  -0.0015 C.ar           1 <1>                0.0000
     10 C10         -1.4064  -3.4863  -0.0110 C.ar           1 <1>                0.0000
     11 C11         -0.0541  -3.7847  -0.0192 C.ar           1 <1>                0.0000
     12 C12          0.8737  -2.7662  -0.0183 C.ar           1 <1>                0.0000
     13 C13          0.4561  -1.4359  -0.0087 C.ar           1 <1>                0.0000
     14 S14          1.3869   0.0582  -0.0109 S.3            1 <1>                0.0000
     15 H15          2.0938   4.8973   0.0090 H              1 <1>                0.0000
     16 H16          0.5441   4.8811  -0.8664 H              1 <1>                0.0000
     17 H17          0.5610   4.8715   0.9135 H              1 <1>                0.0000
     18 H18         -2.8858  -1.9546   0.0053 H              1 <1>                0.0000
     19 H19         -2.1330  -4.2853  -0.0117 H              1 <1>                0.0000
     20 H20          0.2726  -4.8141  -0.0259 H              1 <1>                0.0000
     21 H21          1.9283  -2.9990  -0.0243 H              1 <1>                0.0000
@<TRIPOS>BOND
    1    1    2 1     
    2    1   15 1     
    3    1   16 1     
    4    1   17 1     
    5    2    3 2     
    6    2    4 1     
    7    4    5 2     
    8    5   14 1     
    9    5    6 1     
   10    6    7 1     
   11    6    8 1     
   12    8   13 ar    
   13    8    9 ar    
   14    9   10 ar    
   15    9   18 1     
   16   10   11 ar    
   17   10   19 1     
   18   11   12 ar    
   19   11   20 1     
   20   12   13 ar    
   21   12   21 1     
   22   13   14 1     
@<TRIPOS>SUBSTRUCTURE
      1 ****           1
@<TRIPOS>SET
DONOR_HYDROGENS      STATIC     ATOMS    <user>   **** ""
1 7
ATOM$RED        STATIC     ATOMS    COLORGROUP SYSTEM
1 7
