#       Name:                VAH
#       Creating user name   gbret
#       Creation time:       Fri Sep  9 17:53:07 2016


#       File generated by GOLD software.
#

@<TRIPOS>MOLECULE
VAH
    20    19     1
SMALL
NO_CHARGES


@<TRIPOS>ATOM
      1 C1          -0.3823   2.3796   1.0171 C.3            1 <1>                0.0000
      2 C2          -0.3615   0.8497   1.0087 C.3            1 <1>                0.0000
      3 C3           0.3546   0.3563  -0.2501 C.3            1 <1>                0.0000
      4 O4           1.7267   0.7528  -0.2038 O.3            1 <1>                0.0000
      5 C5           0.2667  -1.1695  -0.3219 C.3            1 <1>                0.0000
      6 N6          -1.1438  -1.5770  -0.3694 N.4            1 <1>                0.0000
      7 H7          -1.6161  -1.2516   0.4607 H              1 <1>                0.0000
      8 H8          -1.5824  -1.1761  -1.1849 H              1 <1>                0.0000
      9 H9          -1.2018  -2.5832  -0.4168 H              1 <1>                0.0000
     10 C10          0.9721  -1.6555  -1.5618 C.2            1 <1>                0.0000
     11 O11          2.1867  -1.5841  -1.6397 O.co2          1 <1>                0.0000
     12 O12          0.3281  -2.1200  -2.4870 O.co2          1 <1>                0.0000
     13 H13          0.6403   2.7569   1.0094 H              1 <1>                0.0000
     14 H14         -0.9095   2.7406   0.1341 H              1 <1>                0.0000
     15 H15         -0.8925   2.7311   1.9139 H              1 <1>                0.0000
     16 H16          0.1657   0.4887   1.8918 H              1 <1>                0.0000
     17 H17         -1.3841   0.4724   1.0165 H              1 <1>                0.0000
     18 H18         -0.1192   0.7894  -1.1310 H              1 <1>                0.0000
     19 H19          2.2118   0.4029   0.5561 H              1 <1>                0.0000
     20 H20          0.7405  -1.6026   0.5590 H              1 <1>                0.0000
@<TRIPOS>BOND
    1    1    2 1     
    2    1   13 1     
    3    1   14 1     
    4    1   15 1     
    5    2    3 1     
    6    2   16 1     
    7    2   17 1     
    8    3    4 1     
    9    3    5 1     
   10    3   18 1     
   11    4   19 1     
   12    5    6 1     
   13    5   10 1     
   14    5   20 1     
   15    6    7 1     
   16    6    8 1     
   17    6    9 1     
   18   10   11 ar    
   19   10   12 ar    
@<TRIPOS>SUBSTRUCTURE
      1 ****           1
@<TRIPOS>SET
DONOR_HYDROGENS      STATIC     ATOMS    <user>   **** ""
4 19 7 8 9
ATOM$RED        STATIC     ATOMS    COLORGROUP SYSTEM
4 19 7 8 9
