#       Name:                VGC
#       Creating user name   gbret
#       Creation time:       Fri Sep  9 17:57:00 2016


#       File generated by GOLD software.
#

@<TRIPOS>MOLECULE
VGC
    44    47     1
SMALL
NO_CHARGES


@<TRIPOS>ATOM
      1 C1          -0.0429   3.5394   1.1686 C.3            1 <1>                0.0000
      2 N2          -0.0230   2.0745   1.1605 N.pl3          1 <1>                0.0000
      3 C3          -0.0173   1.2817   0.0439 C.2            1 <1>                0.0000
      4 C4           0.0021  -0.0223   0.4278 C.2            1 <1>                0.0000
      5 C5           0.0146  -1.2177  -0.4898 C.3            1 <1>                0.0000
      6 C6           1.2764  -2.0442  -0.2334 C.3            1 <1>                0.0000
      7 C7           1.2891  -3.2579  -1.1650 C.3            1 <1>                0.0000
      8 C8           0.0526  -4.1186  -0.8981 C.3            1 <1>                0.0000
      9 C9          -1.2092  -3.2921  -1.1545 C.3            1 <1>                0.0000
     10 C10         -1.2219  -2.0784  -0.2229 C.3            1 <1>                0.0000
     11 C11          0.0090  -0.0572   1.8385 C.2            1 <1>                0.0000
     12 S12          0.0298  -1.1651   3.2055 S.3            1 <1>                0.0000
     13 C13          0.0167   0.1718   4.3441 C.2            1 <1>                0.0000
     14 C14         -0.0022   1.3569   3.6733 C.2            1 <1>                0.0000
     15 C15         -0.0006   1.2527   2.2917 C.2            1 <1>                0.0000
     16 C16          0.0241   0.0373   5.7527 C.2            1 <1>                0.0000
     17 O17          0.0133   1.0355   6.4636 O.co2          1 <1>                0.0000
     18 O18          0.0414  -1.0774   6.2617 O.co2          1 <1>                0.0000
     19 C19         -0.0303   1.7654  -1.3525 C.ar           1 <1>                0.0000
     20 C20          0.8225   1.1957  -2.2998 C.ar           1 <1>                0.0000
     21 C21          0.8053   1.6520  -3.6015 C.ar           1 <1>                0.0000
     22 C22         -0.0541   2.6722  -3.9690 C.ar           1 <1>                0.0000
     23 C23         -0.9018   3.2413  -3.0352 C.ar           1 <1>                0.0000
     24 C24         -0.8993   2.7902  -1.7315 C.ar           1 <1>                0.0000
     25 H25          0.9797   3.9167   1.1608 H              1 <1>                0.0000
     26 H26         -0.5701   3.9005   0.2855 H              1 <1>                0.0000
     27 H27         -0.5531   3.8909   2.0654 H              1 <1>                0.0000
     28 H28          0.0056  -0.8803  -1.5262 H              1 <1>                0.0000
     29 H29          2.1573  -1.4310  -0.4235 H              1 <1>                0.0000
     30 H30          1.2853  -2.3816   0.8030 H              1 <1>                0.0000
     31 H31          1.2801  -2.9205  -2.2014 H              1 <1>                0.0000
     32 H32          2.1880  -3.8467  -0.9823 H              1 <1>                0.0000
     33 H33          0.0616  -4.9832  -1.5618 H              1 <1>                0.0000
     34 H34          0.0616  -4.4560   0.1383 H              1 <1>                0.0000
     35 H35         -1.2181  -2.9546  -2.1909 H              1 <1>                0.0000
     36 H36         -2.0900  -3.9052  -0.9644 H              1 <1>                0.0000
     37 H37         -1.2129  -2.4158   0.8135 H              1 <1>                0.0000
     38 H38         -2.1207  -1.4896  -0.4055 H              1 <1>                0.0000
     39 H39         -0.0132   2.3097   4.1819 H              1 <1>                0.0000
     40 H40          1.4942   0.3998  -2.0140 H              1 <1>                0.0000
     41 H41          1.4645   1.2121  -4.3353 H              1 <1>                0.0000
     42 H42         -0.0630   3.0262  -4.9893 H              1 <1>                0.0000
     43 H43         -1.5699   4.0375  -3.3286 H              1 <1>                0.0000
     44 H44         -1.5614   3.2353  -1.0036 H              1 <1>                0.0000
@<TRIPOS>BOND
    1    1    2 1     
    2    1   25 1     
    3    1   26 1     
    4    1   27 1     
    5    2   15 1     
    6    2    3 1     
    7    3    4 2     
    8    3   19 1     
    9    4    5 1     
   10    4   11 1     
   11    5   10 1     
   12    5    6 1     
   13    5   28 1     
   14    6    7 1     
   15    6   29 1     
   16    6   30 1     
   17    7    8 1     
   18    7   31 1     
   19    7   32 1     
   20    8    9 1     
   21    8   33 1     
   22    8   34 1     
   23    9   10 1     
   24    9   35 1     
   25    9   36 1     
   26   10   37 1     
   27   10   38 1     
   28   11   15 2     
   29   11   12 1     
   30   12   13 1     
   31   13   14 2     
   32   13   16 1     
   33   14   15 1     
   34   14   39 1     
   35   16   17 ar    
   36   16   18 ar    
   37   19   24 ar    
   38   19   20 ar    
   39   20   21 ar    
   40   20   40 1     
   41   21   22 ar    
   42   21   41 1     
   43   22   23 ar    
   44   22   42 1     
   45   23   24 ar    
   46   23   43 1     
   47   24   44 1     
@<TRIPOS>SUBSTRUCTURE
      1 ****           1
