#       Name:                VR2
#       Creating user name   gbret
#       Creation time:       Fri Sep  9 18:02:36 2016


#       File generated by GOLD software.
#

@<TRIPOS>MOLECULE
VR2
    50    52     1
SMALL
NO_CHARGES


@<TRIPOS>ATOM
      1 C1          -0.9627   1.6486  -0.9032 C.3            1 <1>                0.0000
      2 C2          -0.9419   0.1187  -0.9116 C.3            1 <1>                0.0000
      3 C3          -0.2258  -0.3747  -2.1704 C.3            1 <1>                0.0000
      4 C4          -1.0332   0.0260  -3.4067 C.3            1 <1>                0.0000
      5 O5          -0.3644  -0.4349  -4.5824 O.3            1 <1>                0.0000
      6 C6          -0.9538  -0.1594  -5.7756 C.ar           1 <1>                0.0000
      7 C7          -2.1484   0.5449  -5.8142 C.ar           1 <1>                0.0000
      8 C8          -2.7458   0.8237  -7.0281 C.ar           1 <1>                0.0000
      9 C9          -2.1540   0.4008  -8.2046 C.ar           1 <1>                0.0000
     10 I10         -3.0627   0.8253 -10.0439 I              1 <1>                0.0000
     11 C11         -0.9630  -0.3016  -8.1686 C.ar           1 <1>                0.0000
     12 C12         -0.3589  -0.5773  -6.9572 C.ar           1 <1>                0.0000
     13 C13         -0.2019  -0.3881   0.3279 C.3            1 <1>                0.0000
     14 C14         -0.9856  -0.0008   1.5837 C.3            1 <1>                0.0000
     15 N15         -0.2770  -0.4861   2.7705 N.am           1 <1>                0.0000
     16 C16         -0.4670  -1.8028   3.3973 C.3            1 <1>                0.0000
     17 C17          0.5105  -1.7891   4.5885 C.3            1 <1>                0.0000
     18 N18          1.1475  -0.4663   4.5064 N.am           1 <1>                0.0000
     19 C19          0.6509   0.1967   3.4537 C.2            1 <1>                0.0000
     20 O20          1.0040   1.3201   3.1511 O.2            1 <1>                0.0000
     21 C21          2.1192   0.0190   5.3824 C.ar           1 <1>                0.0000
     22 C22          2.5778  -0.7595   6.4440 C.ar           1 <1>                0.0000
     23 C23          3.5393  -0.2432   7.2875 C.ar           1 <1>                0.0000
     24 N24          4.0235   0.9699   7.0992 N.ar           1 <1>                0.0000
     25 C25          3.6152   1.7373   6.1063 C.ar           1 <1>                0.0000
     26 C26          2.6607   1.2926   5.2152 C.ar           1 <1>                0.0000
     27 H27          0.0599   2.0259  -0.9109 H              1 <1>                0.0000
     28 H28         -1.4899   2.0096  -1.7862 H              1 <1>                0.0000
     29 H29         -1.4729   2.0001  -0.0064 H              1 <1>                0.0000
     30 H30         -1.9645  -0.2586  -0.9038 H              1 <1>                0.0000
     31 H31          0.7663   0.0737  -2.2234 H              1 <1>                0.0000
     32 H32         -0.1324  -1.4601  -2.1334 H              1 <1>                0.0000
     33 H33         -2.0253  -0.4224  -3.3537 H              1 <1>                0.0000
     34 H34         -1.1266   1.1113  -3.4436 H              1 <1>                0.0000
     35 H35         -2.6112   0.8747  -4.8958 H              1 <1>                0.0000
     36 H36         -3.6757   1.3720  -7.0586 H              1 <1>                0.0000
     37 H37         -0.5027  -0.6309  -9.0884 H              1 <1>                0.0000
     38 H38          0.5712  -1.1255  -6.9295 H              1 <1>                0.0000
     39 H39         -0.1094  -1.4730   0.2776 H              1 <1>                0.0000
     40 H40          0.7910   0.0598   0.3668 H              1 <1>                0.0000
     41 H41         -1.0781   1.0841   1.6340 H              1 <1>                0.0000
     42 H42         -1.9785  -0.4488   1.5448 H              1 <1>                0.0000
     43 H43         -1.4935  -1.9159   3.7461 H              1 <1>                0.0000
     44 H44         -0.2089  -2.5995   2.6997 H              1 <1>                0.0000
     45 H45         -0.0306  -1.8955   5.5287 H              1 <1>                0.0000
     46 H46          1.2541  -2.5790   4.4824 H              1 <1>                0.0000
     47 H47          2.1854  -1.7530   6.6039 H              1 <1>                0.0000
     48 H48          3.9001  -0.8391   8.1128 H              1 <1>                0.0000
     49 H49          4.0371   2.7244   5.9871 H              1 <1>                0.0000
     50 H50          2.3310   1.9257   4.4048 H              1 <1>                0.0000
@<TRIPOS>BOND
    1    1    2 1     
    2    1   27 1     
    3    1   28 1     
    4    1   29 1     
    5    2    3 1     
    6    2   13 1     
    7    2   30 1     
    8    3    4 1     
    9    3   31 1     
   10    3   32 1     
   11    4    5 1     
   12    4   33 1     
   13    4   34 1     
   14    5    6 1     
   15    6   12 ar    
   16    6    7 ar    
   17    7    8 ar    
   18    7   35 1     
   19    8    9 ar    
   20    8   36 1     
   21    9   10 1     
   22    9   11 ar    
   23   11   12 ar    
   24   11   37 1     
   25   12   38 1     
   26   13   14 1     
   27   13   39 1     
   28   13   40 1     
   29   14   15 1     
   30   14   41 1     
   31   14   42 1     
   32   15   19 am    
   33   15   16 1     
   34   16   17 1     
   35   16   43 1     
   36   16   44 1     
   37   17   18 1     
   38   17   45 1     
   39   17   46 1     
   40   18   19 am    
   41   18   21 1     
   42   19   20 2     
   43   21   26 ar    
   44   21   22 ar    
   45   22   23 ar    
   46   22   47 1     
   47   23   24 ar    
   48   23   48 1     
   49   24   25 ar    
   50   25   26 ar    
   51   25   49 1     
   52   26   50 1     
@<TRIPOS>SUBSTRUCTURE
      1 ****           1
