#       Name:                VU3
#       Creating user name   gbret
#       Creation time:       Fri Sep  9 18:05:09 2016


#       File generated by GOLD software.
#

@<TRIPOS>MOLECULE
VU3
    48    51     1
SMALL
NO_CHARGES


@<TRIPOS>ATOM
      1 C1          -1.0803  -0.1034   0.4040 C.3            1 <1>                0.0000
      2 C2          -1.0595  -1.6333   0.3956 C.3            1 <1>                0.0000
      3 C3          -2.4733  -2.1549   0.4063 C.2            1 <1>                0.0000
      4 C4          -3.2210  -2.3322   1.5070 C.2            1 <1>                0.0000
      5 C5          -4.5179  -2.8504   1.0648 C.ar           1 <1>                0.0000
      6 C6          -5.6900  -3.2237   1.7253 C.ar           1 <1>                0.0000
      7 C7          -6.7573  -3.6821   1.0060 C.ar           1 <1>                0.0000
      8 C8          -6.6859  -3.7797  -0.3771 C.ar           1 <1>                0.0000
      9 C9          -5.5394  -3.4168  -1.0488 C.ar           1 <1>                0.0000
     10 C10         -4.4404  -2.9474  -0.3364 C.ar           1 <1>                0.0000
     11 N11         -3.1871  -2.5124  -0.7050 N.pl3          1 <1>                0.0000
     12 H12         -2.8589  -2.4667  -1.6166 H              1 <1>                0.0000
     13 N13          0.2979   0.4050   0.3936 N.4            1 <1>                0.0000
     14 H14          0.8088   0.0048   1.1662 H              1 <1>                0.0000
     15 C15          0.9472   0.0286  -0.8679 C.3            1 <1>                0.0000
     16 C16          2.4075   0.4854  -0.8504 C.3            1 <1>                0.0000
     17 C17          2.4589   2.0066  -0.6820 C.3            1 <1>                0.0000
     18 C18          1.7143   2.3940   0.5988 C.3            1 <1>                0.0000
     19 C19          0.2795   1.8668   0.5259 C.3            1 <1>                0.0000
     20 C20          3.8945   2.4547  -0.5855 C.ar           1 <1>                0.0000
     21 C21          4.7015   1.9753   0.4293 C.ar           1 <1>                0.0000
     22 C22          6.0183   2.3863   0.5178 C.ar           1 <1>                0.0000
     23 C23          6.5283   3.2765  -0.4087 C.ar           1 <1>                0.0000
     24 C24          5.7216   3.7552  -1.4240 C.ar           1 <1>                0.0000
     25 C25          4.4059   3.3409  -1.5151 C.ar           1 <1>                0.0000
     26 H26         -1.6075   0.2576  -0.4790 H              1 <1>                0.0000
     27 H27         -1.5905   0.2481   1.3008 H              1 <1>                0.0000
     28 H28         -0.5493  -1.9848  -0.5012 H              1 <1>                0.0000
     29 H29         -0.5323  -1.9943   1.2787 H              1 <1>                0.0000
     30 H30         -2.9230  -2.1309   2.5254 H              1 <1>                0.0000
     31 H31         -5.7527  -3.1508   2.8011 H              1 <1>                0.0000
     32 H32         -7.6636  -3.9711   1.5173 H              1 <1>                0.0000
     33 H33         -7.5378  -4.1442  -0.9319 H              1 <1>                0.0000
     34 H34         -5.4938  -3.4960  -2.1249 H              1 <1>                0.0000
     35 H35          0.9069  -1.0540  -0.9878 H              1 <1>                0.0000
     36 H36          0.4279   0.5049  -1.6995 H              1 <1>                0.0000
     37 H37          2.9278   0.0094  -0.0192 H              1 <1>                0.0000
     38 H38          2.8873   0.2066  -1.7885 H              1 <1>                0.0000
     39 H39          1.9835   2.4844  -1.5387 H              1 <1>                0.0000
     40 H40          2.2202   1.9577   1.4601 H              1 <1>                0.0000
     41 H41          1.6986   3.4795   0.6965 H              1 <1>                0.0000
     42 H42         -0.2246   2.3045  -0.3357 H              1 <1>                0.0000
     43 H43         -0.2544   2.1406   1.4359 H              1 <1>                0.0000
     44 H44          4.3030   1.2798   1.1531 H              1 <1>                0.0000
     45 H45          6.6486   2.0123   1.3111 H              1 <1>                0.0000
     46 H46          7.5569   3.5982  -0.3391 H              1 <1>                0.0000
     47 H47          6.1199   4.4510  -2.1477 H              1 <1>                0.0000
     48 H48          3.7756   3.7149  -2.3083 H              1 <1>                0.0000
@<TRIPOS>BOND
    1    1    2 1     
    2    1   13 1     
    3    1   26 1     
    4    1   27 1     
    5    2    3 1     
    6    2   28 1     
    7    2   29 1     
    8    3   11 1     
    9    3    4 2     
   10    4    5 1     
   11    4   30 1     
   12    5   10 ar    
   13    5    6 ar    
   14    6    7 ar    
   15    6   31 1     
   16    7    8 ar    
   17    7   32 1     
   18    8    9 ar    
   19    8   33 1     
   20    9   10 ar    
   21    9   34 1     
   22   10   11 1     
   23   11   12 1     
   24   13   14 1     
   25   13   19 1     
   26   13   15 1     
   27   15   16 1     
   28   15   35 1     
   29   15   36 1     
   30   16   17 1     
   31   16   37 1     
   32   16   38 1     
   33   17   18 1     
   34   17   20 1     
   35   17   39 1     
   36   18   19 1     
   37   18   40 1     
   38   18   41 1     
   39   19   42 1     
   40   19   43 1     
   41   20   25 ar    
   42   20   21 ar    
   43   21   22 ar    
   44   21   44 1     
   45   22   23 ar    
   46   22   45 1     
   47   23   24 ar    
   48   23   46 1     
   49   24   25 ar    
   50   24   47 1     
   51   25   48 1     
@<TRIPOS>SUBSTRUCTURE
      1 ****           1
@<TRIPOS>SET
DONOR_HYDROGENS      STATIC     ATOMS    <user>   **** ""
2 12 14
ATOM$RED        STATIC     ATOMS    COLORGROUP SYSTEM
2 12 14
