#       Name:                VZV
#       Creating user name   gbret
#       Creation time:       Fri Sep  9 18:07:16 2016


#       File generated by GOLD software.
#

@<TRIPOS>MOLECULE
VZV
    71    75     1
SMALL
NO_CHARGES


@<TRIPOS>ATOM
      1 C1           1.9293   1.4300   0.0075 C.3            1 <1>                0.0000
      2 C2           2.0101  -0.0145   0.5053 C.3            1 <1>                0.0000
      3 C3           2.6718  -0.0423   1.8846 C.3            1 <1>                0.0000
      4 C4           0.6211  -0.5907   0.6028 C.2            1 <1>                0.0000
      5 C5           0.1713  -1.4509  -0.3208 C.2            1 <1>                0.0000
      6 S6          -1.4771  -1.8633   0.1795 S.3            1 <1>                0.0000
      7 C7          -1.4431  -0.8280   1.6250 C.2            1 <1>                0.0000
      8 N8          -2.2089  -0.4801   2.6231 N.pl3          1 <1>                0.0000
      9 H9          -3.1135  -0.7994   2.7664 H              1 <1>                0.0000
     10 C10         -1.5038   0.4626   3.4961 C.3            1 <1>                0.0000
     11 C11         -1.3505  -0.1208   4.9022 C.3            1 <1>                0.0000
     12 C12         -0.1288   0.6317   2.8303 C.3            1 <1>                0.0000
     13 N13         -0.2018  -0.2517   1.6356 N.pl3          1 <1>                0.0000
     14 C14          0.0885   2.0658   2.4214 C.ar           1 <1>                0.0000
     15 C15         -0.5802   2.5811   1.3267 C.ar           1 <1>                0.0000
     16 C16         -0.3810   3.8961   0.9509 C.ar           1 <1>                0.0000
     17 C17          0.4875   4.6970   1.6710 C.ar           1 <1>                0.0000
     18 Cl18         0.7378   6.3491   1.2000 Cl             1 <1>                0.0000
     19 C19          1.1561   4.1810   2.7668 C.ar           1 <1>                0.0000
     20 C20          0.9521   2.8672   3.1447 C.ar           1 <1>                0.0000
     21 C21         -2.2335   1.7801   3.5493 C.ar           1 <1>                0.0000
     22 C22         -3.3285   1.9968   2.7338 C.ar           1 <1>                0.0000
     23 C23         -3.9979   3.2051   2.7817 C.ar           1 <1>                0.0000
     24 C24         -3.5722   4.1976   3.6465 C.ar           1 <1>                0.0000
     25 Cl25        -4.4128   5.7153   3.7077 Cl             1 <1>                0.0000
     26 C26         -2.4765   3.9799   4.4627 C.ar           1 <1>                0.0000
     27 C27         -1.8111   2.7694   4.4176 C.ar           1 <1>                0.0000
     28 C28          0.8912  -1.9456  -1.4975 C.2            1 <1>                0.0000
     29 O29          2.0623  -1.6566  -1.6604 O.2            1 <1>                0.0000
     30 N30          0.2565  -2.7206  -2.3992 N.am           1 <1>                0.0000
     31 C31         -1.1788  -3.0569  -2.3841 C.3            1 <1>                0.0000
     32 C32         -1.5222  -3.3956  -3.8562 C.3            1 <1>                0.0000
     33 C33         -0.2327  -4.1253  -4.3169 C.3            1 <1>                0.0000
     34 C34          0.8796  -3.3654  -3.5643 C.3            1 <1>                0.0000
     35 C35          1.4916  -2.3259  -4.4676 C.2            1 <1>                0.0000
     36 O36          1.4292  -1.1517  -4.1703 O.2            1 <1>                0.0000
     37 N37          2.1083  -2.7010  -5.6058 N.am           1 <1>                0.0000
     38 C38          2.7032  -1.6905  -6.4839 C.3            1 <1>                0.0000
     39 C39          2.1836  -4.1193  -5.9648 C.3            1 <1>                0.0000
     40 H40          2.9352   1.8086  -0.1740 H              1 <1>                0.0000
     41 H41          1.3559   1.4635  -0.9189 H              1 <1>                0.0000
     42 H42          1.4393   2.0470   0.7606 H              1 <1>                0.0000
     43 H43          2.6011  -0.6070  -0.1932 H              1 <1>                0.0000
     44 H44          2.0808   0.5502   2.5830 H              1 <1>                0.0000
     45 H45          2.7294  -1.0713   2.2392 H              1 <1>                0.0000
     46 H46          3.6765   0.3745   1.8141 H              1 <1>                0.0000
     47 H47         -0.8035  -1.0621   4.8473 H              1 <1>                0.0000
     48 H48         -0.8021   0.5820   5.5294 H              1 <1>                0.0000
     49 H49         -2.3366  -0.2981   5.3315 H              1 <1>                0.0000
     50 H50          0.6643   0.2992   3.5000 H              1 <1>                0.0000
     51 H51         -1.2581   1.9558   0.7647 H              1 <1>                0.0000
     52 H52         -0.9029   4.2984   0.0952 H              1 <1>                0.0000
     53 H53          1.8344   4.8056   3.3290 H              1 <1>                0.0000
     54 H54          1.4737   2.4643   4.0003 H              1 <1>                0.0000
     55 H55         -3.6608   1.2219   2.0588 H              1 <1>                0.0000
     56 H56         -4.8530   3.3745   2.1440 H              1 <1>                0.0000
     57 H57         -2.1435   4.7545   5.1377 H              1 <1>                0.0000
     58 H58         -0.9560   2.5992   5.0550 H              1 <1>                0.0000
     59 H59         -1.3594  -3.9205  -1.7441 H              1 <1>                0.0000
     60 H60         -1.7650  -2.2029  -2.0447 H              1 <1>                0.0000
     61 H61         -2.3869  -4.0567  -3.9136 H              1 <1>                0.0000
     62 H62         -1.6866  -2.4884  -4.4377 H              1 <1>                0.0000
     63 H63         -0.2565  -5.1741  -4.0209 H              1 <1>                0.0000
     64 H64         -0.1001  -4.0306  -5.3946 H              1 <1>                0.0000
     65 H65          1.6451  -4.0652  -3.2291 H              1 <1>                0.0000
     66 H66          3.7400  -1.5214  -6.1931 H              1 <1>                0.0000
     67 H67          2.6676  -2.0396  -7.5159 H              1 <1>                0.0000
     68 H68          2.1446  -0.7586  -6.3961 H              1 <1>                0.0000
     69 H69          1.6899  -4.7152  -5.1972 H              1 <1>                0.0000
     70 H70          1.6884  -4.2785  -6.9227 H              1 <1>                0.0000
     71 H71          3.2286  -4.4196  -6.0418 H              1 <1>                0.0000
@<TRIPOS>BOND
    1    1    2 1     
    2    1   40 1     
    3    1   41 1     
    4    1   42 1     
    5    2    3 1     
    6    2    4 1     
    7    2   43 1     
    8    3   44 1     
    9    3   45 1     
   10    3   46 1     
   11    4   13 1     
   12    4    5 2     
   13    5    6 1     
   14    5   28 1     
   15    6    7 1     
   16    7   13 2     
   17    7    8 1     
   18    8    9 1     
   19    8   10 1     
   20   10   11 1     
   21   10   12 1     
   22   10   21 1     
   23   11   47 1     
   24   11   48 1     
   25   11   49 1     
   26   12   13 1     
   27   12   14 1     
   28   12   50 1     
   29   14   20 ar    
   30   14   15 ar    
   31   15   16 ar    
   32   15   51 1     
   33   16   17 ar    
   34   16   52 1     
   35   17   18 1     
   36   17   19 ar    
   37   19   20 ar    
   38   19   53 1     
   39   20   54 1     
   40   21   27 ar    
   41   21   22 ar    
   42   22   23 ar    
   43   22   55 1     
   44   23   24 ar    
   45   23   56 1     
   46   24   25 1     
   47   24   26 ar    
   48   26   27 ar    
   49   26   57 1     
   50   27   58 1     
   51   28   29 2     
   52   28   30 am    
   53   30   34 1     
   54   30   31 1     
   55   31   32 1     
   56   31   59 1     
   57   31   60 1     
   58   32   33 1     
   59   32   61 1     
   60   32   62 1     
   61   33   34 1     
   62   33   63 1     
   63   33   64 1     
   64   34   35 1     
   65   34   65 1     
   66   35   36 2     
   67   35   37 am    
   68   37   38 1     
   69   37   39 1     
   70   38   66 1     
   71   38   67 1     
   72   38   68 1     
   73   39   69 1     
   74   39   70 1     
   75   39   71 1     
@<TRIPOS>SUBSTRUCTURE
      1 ****           1
@<TRIPOS>SET
DONOR_HYDROGENS      STATIC     ATOMS    <user>   **** ""
1 9
ATOM$RED        STATIC     ATOMS    COLORGROUP SYSTEM
1 9
