#       Name:                W2C
#       Creating user name   gbret
#       Creation time:       Fri Sep  9 18:08:35 2016


#       File generated by GOLD software.
#

@<TRIPOS>MOLECULE
W2C
    53    55     1
SMALL
NO_CHARGES


@<TRIPOS>ATOM
      1 O1           4.2556  -0.1583  -2.2876 O.3            1 <1>                0.0000
      2 C2           4.2750  -1.5872  -2.2955 C.3            1 <1>                0.0000
      3 C3           5.0068  -2.0962  -1.0503 C.3            1 <1>                0.0000
      4 C4           4.2374  -1.6631   0.1995 C.3            1 <1>                0.0000
      5 N5           2.8818  -2.2246   0.1631 N.4            1 <1>                0.0000
      6 H6           2.9368  -3.2290   0.0848 H              1 <1>                0.0000
      7 H7           2.3949  -1.9807   1.0125 H              1 <1>                0.0000
      8 C8           2.1499  -1.6848  -0.9891 C.3            1 <1>                0.0000
      9 C9           2.8389  -2.1189  -2.2846 C.3            1 <1>                0.0000
     10 C10          0.7358  -2.2057  -0.9740 C.2            1 <1>                0.0000
     11 O11          0.4637  -3.2031  -0.3400 O.2            1 <1>                0.0000
     12 N12         -0.2264  -1.5631  -1.6652 N.am           1 <1>                0.0000
     13 C13         -1.6010  -2.0695  -1.6505 C.3            1 <1>                0.0000
     14 C14         -2.5705  -0.9214  -1.9385 C.3            1 <1>                0.0000
     15 C15         -2.5043   0.0848  -0.8186 C.ar           1 <1>                0.0000
     16 C16         -3.3395  -0.0470   0.2763 C.ar           1 <1>                0.0000
     17 C17         -3.2834   0.8714   1.3048 C.ar           1 <1>                0.0000
     18 C18         -2.3825   1.9332   1.2391 C.ar           1 <1>                0.0000
     19 C19         -1.5430   2.0606   0.1334 C.ar           1 <1>                0.0000
     20 C20         -1.6047   1.1335  -0.8868 C.ar           1 <1>                0.0000
     21 C21         -2.3177   2.9235   2.3407 C.ar           1 <1>                0.0000
     22 C22         -3.1556   2.7899   3.4481 C.ar           1 <1>                0.0000
     23 C23         -3.0965   3.7085   4.4716 C.ar           1 <1>                0.0000
     24 C24         -2.1963   4.7752   4.4011 C.ar           1 <1>                0.0000
     25 C25         -1.3571   4.9077   3.2914 C.ar           1 <1>                0.0000
     26 C26         -1.4149   3.9848   2.2716 C.ar           1 <1>                0.0000
     27 C27         -2.1341   5.7319   5.4649 C.1            1 <1>                0.0000
     28 N28         -2.0847   6.4908   6.3087 N.1            1 <1>                0.0000
     29 C29         -1.7555  -3.1341  -2.7059 C.2            1 <1>                0.0000
     30 N30         -0.7585  -3.4566  -3.4400 N.2            1 <1>                0.0000
     31 H31          5.1335   0.2470  -2.2938 H              1 <1>                0.0000
     32 H32          4.7875  -1.9398  -3.1905 H              1 <1>                0.0000
     33 H33          5.0661  -3.1842  -1.0823 H              1 <1>                0.0000
     34 H34          6.0125  -1.6769  -1.0222 H              1 <1>                0.0000
     35 H35          4.7559  -2.0237   1.0879 H              1 <1>                0.0000
     36 H36          4.1789  -0.5751   0.2307 H              1 <1>                0.0000
     37 H37          2.1358  -0.5964  -0.9326 H              1 <1>                0.0000
     38 H38          2.2950  -1.7156  -3.1389 H              1 <1>                0.0000
     39 H39          2.8533  -3.2072  -2.3423 H              1 <1>                0.0000
     40 H40         -0.0087  -0.7654  -2.1723 H              1 <1>                0.0000
     41 H41         -1.8214  -2.4941  -0.6711 H              1 <1>                0.0000
     42 H42         -2.2948  -0.4397  -2.8766 H              1 <1>                0.0000
     43 H43         -3.5848  -1.3130  -2.0156 H              1 <1>                0.0000
     44 H44         -4.0370  -0.8700   0.3261 H              1 <1>                0.0000
     45 H45         -3.9363   0.7680   2.1588 H              1 <1>                0.0000
     46 H46         -0.8434   2.8815   0.0770 H              1 <1>                0.0000
     47 H47         -0.9546   1.2310  -1.7437 H              1 <1>                0.0000
     48 H48         -3.8512   1.9654   3.5023 H              1 <1>                0.0000
     49 H49         -3.7458   3.6052   5.3284 H              1 <1>                0.0000
     50 H50         -0.6613   5.7317   3.2355 H              1 <1>                0.0000
     51 H51         -0.7663   4.0867   1.4141 H              1 <1>                0.0000
     52 H52         -2.7078  -3.6248  -2.8426 H              1 <1>                0.0000
     53 H53          0.0969  -3.0159  -3.3173 H              1 <1>                0.0000
@<TRIPOS>BOND
    1    1    2 1     
    2    1   31 1     
    3    2    9 1     
    4    2    3 1     
    5    2   32 1     
    6    3    4 1     
    7    3   33 1     
    8    3   34 1     
    9    4    5 1     
   10    4   35 1     
   11    4   36 1     
   12    5    6 1     
   13    5    7 1     
   14    5    8 1     
   15    8    9 1     
   16    8   10 1     
   17    8   37 1     
   18    9   38 1     
   19    9   39 1     
   20   10   11 2     
   21   10   12 am    
   22   12   13 1     
   23   12   40 1     
   24   13   14 1     
   25   13   29 1     
   26   13   41 1     
   27   14   15 1     
   28   14   42 1     
   29   14   43 1     
   30   15   20 ar    
   31   15   16 ar    
   32   16   17 ar    
   33   16   44 1     
   34   17   18 ar    
   35   17   45 1     
   36   18   19 ar    
   37   18   21 1     
   38   19   20 ar    
   39   19   46 1     
   40   20   47 1     
   41   21   26 ar    
   42   21   22 ar    
   43   22   23 ar    
   44   22   48 1     
   45   23   24 ar    
   46   23   49 1     
   47   24   25 ar    
   48   24   27 1     
   49   25   26 ar    
   50   25   50 1     
   51   26   51 1     
   52   27   28 3     
   53   29   30 2     
   54   29   52 1     
   55   30   53 1     
@<TRIPOS>SUBSTRUCTURE
      1 ****           1
@<TRIPOS>SET
DONOR_HYDROGENS      STATIC     ATOMS    <user>   **** ""
5 31 6 7 40 53
ATOM$RED        STATIC     ATOMS    COLORGROUP SYSTEM
5 31 6 7 40 53
