#       Name:                W74
#       Creating user name   gbret
#       Creation time:       Fri Sep  9 18:10:36 2016


#       File generated by GOLD software.
#

@<TRIPOS>MOLECULE
W74
    34    35     1
SMALL
NO_CHARGES


@<TRIPOS>ATOM
      1 O1           2.2417   1.2414  -0.1601 O.co2          1 <1>                0.0000
      2 C2           2.2414   2.4634  -0.1797 C.2            1 <1>                0.0000
      3 O3           3.2916   3.0767  -0.0599 O.co2          1 <1>                0.0000
      4 C4           0.9680   3.2014  -0.3549 C.2            1 <1>                0.0000
      5 N5           0.9412   4.5765  -0.2541 N.am           1 <1>                0.0000
      6 H6           1.7633   5.0564  -0.0675 H              1 <1>                0.0000
      7 C7          -0.2024   5.2635  -0.4100 C.2            1 <1>                0.0000
      8 O8          -0.1822   6.4754  -0.3136 O.2            1 <1>                0.0000
      9 N9          -1.3688   4.6475  -0.6702 N.am           1 <1>                0.0000
     10 H10         -2.1775   5.1723  -0.7775 H              1 <1>                0.0000
     11 C11         -1.4215   3.3041  -0.7835 C.2            1 <1>                0.0000
     12 O12         -2.4751   2.7436  -1.0197 O.2            1 <1>                0.0000
     13 C13         -0.1820   2.5300  -0.6217 C.2            1 <1>                0.0000
     14 C14         -0.1891   1.0276  -0.7396 C.3            1 <1>                0.0000
     15 C15         -0.4882   0.4101   0.6279 C.3            1 <1>                0.0000
     16 C16         -0.4953  -1.0923   0.5099 C.ar           1 <1>                0.0000
     17 C17         -1.6699  -1.7550   0.2051 C.ar           1 <1>                0.0000
     18 C18         -1.6791  -3.1322   0.0964 C.ar           1 <1>                0.0000
     19 C19         -0.5084  -3.8501   0.2929 C.ar           1 <1>                0.0000
     20 O20         -0.5147  -5.2049   0.1861 O.3            1 <1>                0.0000
     21 C21          0.7271  -5.8785   0.4014 C.3            1 <1>                0.0000
     22 F22          1.1877  -5.6055   1.6939 F              1 <1>                0.0000
     23 F23          0.5414  -7.2573   0.2540 F              1 <1>                0.0000
     24 F24          1.6678  -5.4322  -0.5329 F              1 <1>                0.0000
     25 C25          0.6689  -3.1827   0.5982 C.ar           1 <1>                0.0000
     26 C26          0.6739  -1.8051   0.7011 C.ar           1 <1>                0.0000
     27 H27         -0.9562   0.7227  -1.4515 H              1 <1>                0.0000
     28 H28          0.7858   0.6858  -1.0873 H              1 <1>                0.0000
     29 H29          0.2788   0.7150   1.3398 H              1 <1>                0.0000
     30 H30         -1.4631   0.7519   0.9756 H              1 <1>                0.0000
     31 H31         -2.5810  -1.1956   0.0522 H              1 <1>                0.0000
     32 H32         -2.5969  -3.6494  -0.1410 H              1 <1>                0.0000
     33 H33          1.5815  -3.7395   0.7520 H              1 <1>                0.0000
     34 H34          1.5902  -1.2851   0.9384 H              1 <1>                0.0000
@<TRIPOS>BOND
    1    1    2 ar    
    2    2    3 ar    
    3    2    4 1     
    4    4   13 2     
    5    4    5 1     
    6    5    6 1     
    7    5    7 1     
    8    7    8 2     
    9    7    9 1     
   10    9   10 1     
   11    9   11 1     
   12   11   12 2     
   13   11   13 1     
   14   13   14 1     
   15   14   15 1     
   16   14   27 1     
   17   14   28 1     
   18   15   16 1     
   19   15   29 1     
   20   15   30 1     
   21   16   26 ar    
   22   16   17 ar    
   23   17   18 ar    
   24   17   31 1     
   25   18   19 ar    
   26   18   32 1     
   27   19   20 1     
   28   19   25 ar    
   29   20   21 1     
   30   21   22 1     
   31   21   23 1     
   32   21   24 1     
   33   25   26 ar    
   34   25   33 1     
   35   26   34 1     
@<TRIPOS>SUBSTRUCTURE
      1 ****           1
@<TRIPOS>SET
DONOR_HYDROGENS      STATIC     ATOMS    <user>   **** ""
2 6 10
ATOM$RED        STATIC     ATOMS    COLORGROUP SYSTEM
2 6 10
