#       Name:                W7N
#       Creating user name   gbret
#       Creation time:       Fri Sep  9 18:11:45 2016


#       File generated by GOLD software.
#

@<TRIPOS>MOLECULE
W7N
    47    49     1
SMALL
NO_CHARGES


@<TRIPOS>ATOM
      1 O1           5.8454   0.1459   5.6999 O.3            1 <1>                0.0000
      2 C2           5.9144  -1.2522   5.4124 C.3            1 <1>                0.0000
      3 C3           4.5010  -1.8370   5.3821 C.3            1 <1>                0.0000
      4 N4           3.7528  -1.2488   4.2683 N.am           1 <1>                0.0000
      5 C5           2.4757  -1.6171   4.0452 C.2            1 <1>                0.0000
      6 O6           1.9446  -2.4375   4.7682 O.2            1 <1>                0.0000
      7 C7           1.7211  -1.0237   2.9218 C.ar           1 <1>                0.0000
      8 C8           2.3426  -0.0792   2.0851 C.ar           1 <1>                0.0000
      9 C9           1.6705   0.4799   1.0470 C.ar           1 <1>                0.0000
     10 C10          0.3344   0.1170   0.7962 C.ar           1 <1>                0.0000
     11 C11         -0.3816   0.6820  -0.2723 C.ar           1 <1>                0.0000
     12 C12         -1.6732   0.3110  -0.4904 C.ar           1 <1>                0.0000
     13 C13         -2.4364   0.9203  -1.6381 C.3            1 <1>                0.0000
     14 C14         -2.2434   0.0636  -2.8909 C.3            1 <1>                0.0000
     15 C15         -3.0067   0.6729  -4.0387 C.2            1 <1>                0.0000
     16 C16         -2.4149   1.5691  -4.8699 C.2            1 <1>                0.0000
     17 N17         -3.1407   2.1086  -5.9110 N.am           1 <1>                0.0000
     18 H18         -2.7180   2.7488  -6.5047 H              1 <1>                0.0000
     19 C19         -4.4222   1.7635  -6.1182 C.2            1 <1>                0.0000
     20 O20         -5.0262   2.2624  -7.0481 O.2            1 <1>                0.0000
     21 N21         -5.0550   0.8809  -5.3255 N.am           1 <1>                0.0000
     22 H22         -5.9810   0.6523  -5.5019 H              1 <1>                0.0000
     23 C23         -4.4085   0.3070  -4.2896 C.2            1 <1>                0.0000
     24 O24         -4.9779  -0.4922  -3.5707 O.2            1 <1>                0.0000
     25 C25         -1.0019   1.9642  -4.6596 C.2            1 <1>                0.0000
     26 O26         -0.3990   1.5743  -3.6707 O.co2          1 <1>                0.0000
     27 O27         -0.4397   2.6800  -5.4752 O.co2          1 <1>                0.0000
     28 C28         -2.3002  -0.6240   0.3312 C.ar           1 <1>                0.0000
     29 C29         -1.6390  -1.1928   1.3758 C.ar           1 <1>                0.0000
     30 C30         -0.3034  -0.8340   1.6326 C.ar           1 <1>                0.0000
     31 C31          0.4091  -1.4059   2.6973 C.ar           1 <1>                0.0000
     32 H32          6.7071   0.5833   5.7348 H              1 <1>                0.0000
     33 H33          6.3899  -1.4006   4.4428 H              1 <1>                0.0000
     34 H34          6.4986  -1.7535   6.1841 H              1 <1>                0.0000
     35 H35          4.5576  -2.9177   5.2511 H              1 <1>                0.0000
     36 H36          3.9939  -1.6108   6.3201 H              1 <1>                0.0000
     37 H37          4.1766  -0.5941   3.6915 H              1 <1>                0.0000
     38 H38          3.3677   0.2051   2.2715 H              1 <1>                0.0000
     39 H39          2.1613   1.2037   0.4133 H              1 <1>                0.0000
     40 H40          0.0905   1.4079  -0.9178 H              1 <1>                0.0000
     41 H41         -3.4963   0.9637  -1.3873 H              1 <1>                0.0000
     42 H42         -2.0661   1.9280  -1.8265 H              1 <1>                0.0000
     43 H43         -1.1836   0.0202  -3.1417 H              1 <1>                0.0000
     44 H44         -2.6138  -0.9441  -2.7026 H              1 <1>                0.0000
     45 H45         -3.3258  -0.9008   0.1362 H              1 <1>                0.0000
     46 H46         -2.1373  -1.9158   2.0046 H              1 <1>                0.0000
     47 H47         -0.0631  -2.1351   3.3391 H              1 <1>                0.0000
@<TRIPOS>BOND
    1    1    2 1     
    2    1   32 1     
    3    2    3 1     
    4    2   33 1     
    5    2   34 1     
    6    3    4 1     
    7    3   35 1     
    8    3   36 1     
    9    4    5 am    
   10    4   37 1     
   11    5    6 2     
   12    5    7 1     
   13    7   31 ar    
   14    7    8 ar    
   15    8    9 ar    
   16    8   38 1     
   17    9   10 ar    
   18    9   39 1     
   19   10   30 ar    
   20   10   11 ar    
   21   11   12 ar    
   22   11   40 1     
   23   12   13 1     
   24   12   28 ar    
   25   13   14 1     
   26   13   41 1     
   27   13   42 1     
   28   14   15 1     
   29   14   43 1     
   30   14   44 1     
   31   15   23 1     
   32   15   16 2     
   33   16   17 1     
   34   16   25 1     
   35   17   18 1     
   36   17   19 1     
   37   19   20 2     
   38   19   21 1     
   39   21   22 1     
   40   21   23 1     
   41   23   24 2     
   42   25   26 ar    
   43   25   27 ar    
   44   28   29 ar    
   45   28   45 1     
   46   29   30 ar    
   47   29   46 1     
   48   30   31 ar    
   49   31   47 1     
@<TRIPOS>SUBSTRUCTURE
      1 ****           1
@<TRIPOS>SET
DONOR_HYDROGENS      STATIC     ATOMS    <user>   **** ""
4 32 37 18 22
ATOM$RED        STATIC     ATOMS    COLORGROUP SYSTEM
4 32 37 18 22
