#       Name:                W8L
#       Creating user name   gbret
#       Creation time:       Fri Sep  9 18:12:30 2016


#       File generated by GOLD software.
#

@<TRIPOS>MOLECULE
W8L
    31    33     1
SMALL
NO_CHARGES


@<TRIPOS>ATOM
      1 C1          -0.0370   1.8761  -2.8282 C.3            1 <1>                0.0000
      2 C2          -0.0165   0.3692  -2.8365 C.ar           1 <1>                0.0000
      3 C3          -0.0128  -0.3114  -4.0219 C.ar           1 <1>                0.0000
      4 C4           0.0059  -1.7001  -4.0468 C.ar           1 <1>                0.0000
      5 C5           0.0207  -2.4259  -2.8757 C.ar           1 <1>                0.0000
      6 C6           0.0174  -1.7547  -1.6533 C.ar           1 <1>                0.0000
      7 C7           0.0045  -0.3394  -1.6329 C.ar           1 <1>                0.0000
      8 C8           0.0007   0.3381  -0.3389 C.2            1 <1>                0.0000
      9 C9           0.0095  -0.4009   0.7990 C.2            1 <1>                0.0000
     10 N10          0.0225  -1.7744   0.7774 N.am           1 <1>                0.0000
     11 H11          0.0284  -2.2569   1.6189 H              1 <1>                0.0000
     12 C12          0.0321  -2.4733  -0.3747 C.2            1 <1>                0.0000
     13 O13          0.0435  -3.6909  -0.3545 O.2            1 <1>                0.0000
     14 C14          0.0056   0.2941   2.1035 C.ar           1 <1>                0.0000
     15 C15         -0.0128   1.6890   2.1543 C.ar           1 <1>                0.0000
     16 C16         -0.0169   2.3319   3.3745 C.ar           1 <1>                0.0000
     17 C17         -0.0023   1.5964   4.5478 C.ar           1 <1>                0.0000
     18 Cl18        -0.0069   2.4127   6.0799 Cl             1 <1>                0.0000
     19 C19          0.0156   0.2124   4.5039 C.ar           1 <1>                0.0000
     20 C20          0.0145  -0.4418   3.2897 C.ar           1 <1>                0.0000
     21 H21          0.9856   2.2534  -2.8359 H              1 <1>                0.0000
     22 H22         -0.5641   2.2372  -3.7113 H              1 <1>                0.0000
     23 H23         -0.5472   2.2276  -1.9314 H              1 <1>                0.0000
     24 H24         -0.0250   0.2379  -4.9516 H              1 <1>                0.0000
     25 H25          0.0085  -2.2169  -4.9951 H              1 <1>                0.0000
     26 H26          0.0346  -3.5054  -2.9042 H              1 <1>                0.0000
     27 H27         -0.0086   1.4169  -0.2884 H              1 <1>                0.0000
     28 H28         -0.0236   2.2637   1.2399 H              1 <1>                0.0000
     29 H29         -0.0312   3.4111   3.4150 H              1 <1>                0.0000
     30 H30          0.0270  -0.3559   5.4222 H              1 <1>                0.0000
     31 H31          0.0284  -1.5213   3.2566 H              1 <1>                0.0000
@<TRIPOS>BOND
    1    1    2 1     
    2    1   21 1     
    3    1   22 1     
    4    1   23 1     
    5    2    7 ar    
    6    2    3 ar    
    7    3    4 ar    
    8    3   24 1     
    9    4    5 ar    
   10    4   25 1     
   11    5    6 ar    
   12    5   26 1     
   13    6   12 1     
   14    6    7 ar    
   15    7    8 1     
   16    8    9 2     
   17    8   27 1     
   18    9   10 1     
   19    9   14 1     
   20   10   11 1     
   21   10   12 am    
   22   12   13 2     
   23   14   20 ar    
   24   14   15 ar    
   25   15   16 ar    
   26   15   28 1     
   27   16   17 ar    
   28   16   29 1     
   29   17   18 1     
   30   17   19 ar    
   31   19   20 ar    
   32   19   30 1     
   33   20   31 1     
@<TRIPOS>SUBSTRUCTURE
      1 ****           1
@<TRIPOS>SET
DONOR_HYDROGENS      STATIC     ATOMS    <user>   **** ""
1 11
ATOM$RED        STATIC     ATOMS    COLORGROUP SYSTEM
1 11
