#       Name:                W9M
#       Creating user name   gbret
#       Creation time:       Fri Sep  9 18:12:59 2016


#       File generated by GOLD software.
#

@<TRIPOS>MOLECULE
W9M
    24    24     1
SMALL
NO_CHARGES


@<TRIPOS>ATOM
      1 C1           1.6804   3.1835  -0.0921 C.3            1 <1>                0.0000
      2 N2           1.7001   1.7187  -0.1020 N.am           1 <1>                0.0000
      3 C3           2.9784   1.0034  -0.1289 C.3            1 <1>                0.0000
      4 C4           0.5422   1.0290  -0.0864 C.2            1 <1>                0.0000
      5 O5          -0.5187   1.6226  -0.0641 O.2            1 <1>                0.0000
      6 N6           0.5604  -0.3186  -0.0954 N.am           1 <1>                0.0000
      7 C7          -0.6368  -1.0355   0.0178 C.ar           1 <1>                0.0000
      8 C8          -0.6645  -2.2375   0.7130 C.ar           1 <1>                0.0000
      9 C9          -1.8465  -2.9431   0.8241 C.ar           1 <1>                0.0000
     10 C10         -3.0031  -2.4539   0.2430 C.ar           1 <1>                0.0000
     11 Cl11        -4.4872  -3.3434   0.3846 Cl             1 <1>                0.0000
     12 C12         -2.9788  -1.2558  -0.4508 C.ar           1 <1>                0.0000
     13 Cl13        -4.4317  -0.6450  -1.1786 Cl             1 <1>                0.0000
     14 C14         -1.7992  -0.5432  -0.5597 C.ar           1 <1>                0.0000
     15 H15          2.7029   3.5607  -0.1074 H              1 <1>                0.0000
     16 H16          1.1464   3.5456  -0.9706 H              1 <1>                0.0000
     17 H17          1.1773   3.5340   0.8090 H              1 <1>                0.0000
     18 H18          3.3132   0.8194   0.8920 H              1 <1>                0.0000
     19 H19          2.8519   0.0527  -0.6468 H              1 <1>                0.0000
     20 H20          3.7210   1.6061  -0.6518 H              1 <1>                0.0000
     21 H21          1.4028  -0.7917  -0.1804 H              1 <1>                0.0000
     22 H22          0.2379  -2.6204   1.1663 H              1 <1>                0.0000
     23 H23         -1.8680  -3.8778   1.3647 H              1 <1>                0.0000
     24 H24         -1.7802   0.3914  -1.1005 H              1 <1>                0.0000
@<TRIPOS>BOND
    1    1    2 1     
    2    1   15 1     
    3    1   16 1     
    4    1   17 1     
    5    2    3 1     
    6    2    4 am    
    7    3   18 1     
    8    3   19 1     
    9    3   20 1     
   10    4    5 2     
   11    4    6 am    
   12    6    7 1     
   13    6   21 1     
   14    7   14 ar    
   15    7    8 ar    
   16    8    9 ar    
   17    8   22 1     
   18    9   10 ar    
   19    9   23 1     
   20   10   11 1     
   21   10   12 ar    
   22   12   13 1     
   23   12   14 ar    
   24   14   24 1     
@<TRIPOS>SUBSTRUCTURE
      1 ****           1
@<TRIPOS>SET
DONOR_HYDROGENS      STATIC     ATOMS    <user>   **** ""
1 21
ATOM$RED        STATIC     ATOMS    COLORGROUP SYSTEM
1 21
