#       Name:                WM2
#       Creating user name   gbret
#       Creation time:       Fri Sep  9 18:16:58 2016


#       File generated by GOLD software.
#

@<TRIPOS>MOLECULE
WM2
    22    22     1
SMALL
NO_CHARGES


@<TRIPOS>ATOM
      1 N1           1.7299   2.5526   0.5084 N.am           1 <1>                0.0000
      2 C2           1.7482   1.2049   0.5010 C.2            1 <1>                0.0000
      3 O3           2.8066   0.6129   0.4877 O.2            1 <1>                0.0000
      4 C4           0.4535   0.4337   0.5092 C.3            1 <1>                0.0000
      5 C5          -0.3658   0.7991  -0.7303 C.3            1 <1>                0.0000
      6 C6          -1.6802   0.0162  -0.7219 C.3            1 <1>                0.0000
      7 C7          -1.3802  -1.4841  -0.7329 C.3            1 <1>                0.0000
      8 C8          -0.5611  -1.8495   0.5067 C.3            1 <1>                0.0000
      9 C9           0.7534  -1.0665   0.4983 C.3            1 <1>                0.0000
     10 H10          2.5632   3.0489   0.4991 H              1 <1>                0.0000
     11 H11          0.8834   3.0260   0.5190 H              1 <1>                0.0000
     12 H12         -0.1131   0.6845   1.4060 H              1 <1>                0.0000
     13 H13         -0.5794   1.8679  -0.7225 H              1 <1>                0.0000
     14 H14          0.2009   0.5484  -1.6271 H              1 <1>                0.0000
     15 H15         -2.2467   0.2669   0.1748 H              1 <1>                0.0000
     16 H16         -2.2637   0.2765  -1.6050 H              1 <1>                0.0000
     17 H17         -2.3167  -2.0419  -0.7269 H              1 <1>                0.0000
     18 H18         -0.8136  -1.7348  -1.6297 H              1 <1>                0.0000
     19 H19         -1.1276  -1.5987   1.4035 H              1 <1>                0.0000
     20 H20         -0.3475  -2.9183   0.4989 H              1 <1>                0.0000
     21 H21          1.3200  -1.3173  -0.3985 H              1 <1>                0.0000
     22 H22          1.3370  -1.3268   1.3814 H              1 <1>                0.0000
@<TRIPOS>BOND
    1    1    2 am    
    2    1   10 1     
    3    1   11 1     
    4    2    3 2     
    5    2    4 1     
    6    4    9 1     
    7    4    5 1     
    8    4   12 1     
    9    5    6 1     
   10    5   13 1     
   11    5   14 1     
   12    6    7 1     
   13    6   15 1     
   14    6   16 1     
   15    7    8 1     
   16    7   17 1     
   17    7   18 1     
   18    8    9 1     
   19    8   19 1     
   20    8   20 1     
   21    9   21 1     
   22    9   22 1     
@<TRIPOS>SUBSTRUCTURE
      1 ****           1
@<TRIPOS>SET
DONOR_HYDROGENS      STATIC     ATOMS    <user>   **** ""
2 10 11
ATOM$RED        STATIC     ATOMS    COLORGROUP SYSTEM
2 10 11
