#       Name:                WY3
#       Creating user name   gbret
#       Creation time:       Fri Sep  9 18:22:02 2016


#       File generated by GOLD software.
#

@<TRIPOS>MOLECULE
WY3
    35    37     1
SMALL
NO_CHARGES


@<TRIPOS>ATOM
      1 O1          -1.1113   5.2100   0.9024 O.3            1 <1>                0.0000
      2 C2          -1.0929   3.8526   0.8949 C.ar           1 <1>                0.0000
      3 C3          -1.0894   3.1682  -0.3191 C.ar           1 <1>                0.0000
      4 C4          -1.0714   1.8039  -0.3434 C.ar           1 <1>                0.0000
      5 C5          -1.0559   1.0871   0.8587 C.ar           1 <1>                0.0000
      6 C6          -1.0358  -0.3772   0.8633 C.2            1 <1>                0.0000
      7 C7          -1.0312  -1.1552  -0.4273 C.3            1 <1>                0.0000
      8 N8           0.3307  -1.1834  -0.9772 N.4            1 <1>                0.0000
      9 H9           0.6736  -0.2395  -1.0753 H              1 <1>                0.0000
     10 C10          1.2103  -1.9324  -0.0692 C.3            1 <1>                0.0000
     11 C11          2.6287  -1.9601  -0.6442 C.3            1 <1>                0.0000
     12 O12          2.5974  -2.5470  -1.9481 O.3            1 <1>                0.0000
     13 C13          1.7346  -1.8661  -2.8634 C.3            1 <1>                0.0000
     14 C14          0.3145  -1.8380  -2.2926 C.3            1 <1>                0.0000
     15 C15         -1.0210  -1.0151   2.0626 C.2            1 <1>                0.0000
     16 C16         -1.0253  -0.2646   3.2563 C.2            1 <1>                0.0000
     17 O17         -1.0120  -0.8490   4.3247 O.2            1 <1>                0.0000
     18 O18         -1.0432   1.0775   3.2452 O.3            1 <1>                0.0000
     19 C19         -1.0590   1.7726   2.0877 C.ar           1 <1>                0.0000
     20 C20         -1.0721   3.1594   2.0939 C.ar           1 <1>                0.0000
     21 H21         -0.2334   5.6152   0.8962 H              1 <1>                0.0000
     22 H22         -1.1013   3.7211  -1.2468 H              1 <1>                0.0000
     23 H23         -1.0694   1.2788  -1.2872 H              1 <1>                0.0000
     24 H24         -1.3679  -2.1745  -0.2383 H              1 <1>                0.0000
     25 H25         -1.7017  -0.6777  -1.1418 H              1 <1>                0.0000
     26 H26          1.2231  -1.4474   0.9069 H              1 <1>                0.0000
     27 H27          0.8406  -2.9523   0.0361 H              1 <1>                0.0000
     28 H28          3.0139  -0.9427  -0.7121 H              1 <1>                0.0000
     29 H29          3.2735  -2.5515   0.0059 H              1 <1>                0.0000
     30 H30          2.0892  -0.8455  -3.0072 H              1 <1>                0.0000
     31 H31          1.7323  -2.3896  -3.8195 H              1 <1>                0.0000
     32 H32         -0.0549  -2.8580  -2.1865 H              1 <1>                0.0000
     33 H33         -0.3375  -1.2831  -2.9671 H              1 <1>                0.0000
     34 H34         -1.0064  -2.0943   2.1017 H              1 <1>                0.0000
     35 H35         -1.0701   3.6970   3.0306 H              1 <1>                0.0000
@<TRIPOS>BOND
    1    1    2 1     
    2    1   21 1     
    3    2   20 ar    
    4    2    3 ar    
    5    3    4 ar    
    6    3   22 1     
    7    4    5 ar    
    8    4   23 1     
    9    5   19 ar    
   10    5    6 1     
   11    6    7 1     
   12    6   15 2     
   13    7    8 1     
   14    7   24 1     
   15    7   25 1     
   16    8    9 1     
   17    8   14 1     
   18    8   10 1     
   19   10   11 1     
   20   10   26 1     
   21   10   27 1     
   22   11   12 1     
   23   11   28 1     
   24   11   29 1     
   25   12   13 1     
   26   13   14 1     
   27   13   30 1     
   28   13   31 1     
   29   14   32 1     
   30   14   33 1     
   31   15   16 1     
   32   15   34 1     
   33   16   17 2     
   34   16   18 1     
   35   18   19 1     
   36   19   20 ar    
   37   20   35 1     
@<TRIPOS>SUBSTRUCTURE
      1 ****           1
@<TRIPOS>SET
DONOR_HYDROGENS      STATIC     ATOMS    <user>   **** ""
2 21 9
ATOM$RED        STATIC     ATOMS    COLORGROUP SYSTEM
2 21 9
