#       Name:                WYE
#       Creating user name   gbret
#       Creation time:       Fri Sep  9 18:22:10 2016


#       File generated by GOLD software.
#

@<TRIPOS>MOLECULE
WYE
    53    57     1
SMALL
NO_CHARGES


@<TRIPOS>ATOM
      1 C1          -3.7596   4.2623  -0.0214 C.3            1 <1>                0.0000
      2 N2          -3.7397   2.7934  -0.0295 N.4            1 <1>                0.0000
      3 H3          -4.6864   2.4444  -0.0223 H              1 <1>                0.0000
      4 C4          -3.0528   2.3200  -1.2384 C.3            1 <1>                0.0000
      5 C5          -3.0483   0.7899  -1.2566 C.3            1 <1>                0.0000
      6 N6          -2.3635   0.2905  -0.0559 N.3            1 <1>                0.0000
      7 C7          -3.0255   0.7769   1.1628 C.3            1 <1>                0.0000
      8 C8          -3.0299   2.3071   1.1610 C.3            1 <1>                0.0000
      9 C9          -2.2925  -1.0981  -0.0640 C.ar           1 <1>                0.0000
     10 C10         -3.4472  -1.8761  -0.1017 C.ar           1 <1>                0.0000
     11 C11         -3.3326  -3.2534  -0.1085 C.ar           1 <1>                0.0000
     12 N12         -2.1577  -3.8489  -0.0802 N.pl3          1 <1>                0.0000
     13 H13         -2.1204  -4.8182  -0.0862 H              1 <1>                0.0000
     14 C14         -1.0224  -3.1598  -0.0442 C.ar           1 <1>                0.0000
     15 N15          0.3012  -3.5383  -0.0103 N.pl3          1 <1>                0.0000
     16 C16          0.7725  -4.9255  -0.0074 C.3            1 <1>                0.0000
     17 C17          1.1089  -2.4469   0.0199 C.2            1 <1>                0.0000
     18 C18          0.3460  -1.3117   0.0070 C.2            1 <1>                0.0000
     19 C19          0.8274   0.0689   0.0296 C.2            1 <1>                0.0000
     20 C20          2.1644   0.3232   0.0682 C.2            1 <1>                0.0000
     21 O21          3.1471  -0.6084   0.0830 O.3            1 <1>                0.0000
     22 C22          4.3695  -0.0349   0.1219 C.ar           1 <1>                0.0000
     23 C23          5.6477  -0.5735   0.1488 C.ar           1 <1>                0.0000
     24 C24          6.7551   0.2602   0.1877 C.ar           1 <1>                0.0000
     25 O25          8.0011  -0.2782   0.2137 O.3            1 <1>                0.0000
     26 C26          6.6019   1.6417   0.2000 C.ar           1 <1>                0.0000
     27 C27          5.3358   2.1978   0.1732 C.ar           1 <1>                0.0000
     28 O28          5.1821   3.5460   0.1847 O.co2          1 <1>                0.0000
     29 C29          4.2135   1.3611   0.1343 C.ar           1 <1>                0.0000
     30 C30          2.7647   1.6114   0.0934 C.2            1 <1>                0.0000
     31 O31          2.1994   2.6927   0.0849 O.2            1 <1>                0.0000
     32 C32         -1.0579  -1.7579  -0.0405 C.ar           1 <1>                0.0000
     33 H33         -2.7371   4.6396  -0.0291 H              1 <1>                0.0000
     34 H34         -4.2868   4.6234  -0.9045 H              1 <1>                0.0000
     35 H35         -4.2698   4.6138   0.8754 H              1 <1>                0.0000
     36 H36         -3.5727   2.6924  -2.1211 H              1 <1>                0.0000
     37 H37         -2.0262   2.6864  -1.2400 H              1 <1>                0.0000
     38 H38         -4.0748   0.4233  -1.2689 H              1 <1>                0.0000
     39 H39         -2.5256   0.4383  -2.1462 H              1 <1>                0.0000
     40 H40         -4.0516   0.4101   1.1905 H              1 <1>                0.0000
     41 H41         -2.4861   0.4158   2.0385 H              1 <1>                0.0000
     42 H42         -2.0033   2.6734   1.1471 H              1 <1>                0.0000
     43 H43         -3.5330   2.6701   2.0572 H              1 <1>                0.0000
     44 H44         -4.4206  -1.4087  -0.1249 H              1 <1>                0.0000
     45 H45         -4.2282  -3.8564  -0.1373 H              1 <1>                0.0000
     46 H46          0.9178  -5.2620  -1.0339 H              1 <1>                0.0000
     47 H47          1.7175  -4.9870   0.5324 H              1 <1>                0.0000
     48 H48          0.0329  -5.5594   0.4816 H              1 <1>                0.0000
     49 H49          2.1882  -2.4716   0.0501 H              1 <1>                0.0000
     50 H50          0.1223   0.8869   0.0157 H              1 <1>                0.0000
     51 H51          5.7807  -1.6452   0.1396 H              1 <1>                0.0000
     52 H52          8.3851  -0.4235  -0.6618 H              1 <1>                0.0000
     53 H53          7.4718   2.2811   0.2308 H              1 <1>                0.0000
@<TRIPOS>BOND
    1    1    2 1     
    2    1   33 1     
    3    1   34 1     
    4    1   35 1     
    5    2    3 1     
    6    2    8 1     
    7    2    4 1     
    8    4    5 1     
    9    4   36 1     
   10    4   37 1     
   11    5    6 1     
   12    5   38 1     
   13    5   39 1     
   14    6    7 1     
   15    6    9 1     
   16    7    8 1     
   17    7   40 1     
   18    7   41 1     
   19    8   42 1     
   20    8   43 1     
   21    9   32 ar    
   22    9   10 ar    
   23   10   11 ar    
   24   10   44 1     
   25   11   12 ar    
   26   11   45 1     
   27   12   13 1     
   28   12   14 ar    
   29   14   32 ar    
   30   14   15 1     
   31   15   16 1     
   32   15   17 1     
   33   16   46 1     
   34   16   47 1     
   35   16   48 1     
   36   17   18 2     
   37   17   49 1     
   38   18   19 1     
   39   18   32 1     
   40   19   20 2     
   41   19   50 1     
   42   20   30 1     
   43   20   21 1     
   44   21   22 1     
   45   22   29 ar    
   46   22   23 ar    
   47   23   24 ar    
   48   23   51 1     
   49   24   25 1     
   50   24   26 ar    
   51   25   52 1     
   52   26   27 ar    
   53   26   53 1     
   54   27   28 ar    
   55   27   29 ar    
   56   29   30 1     
   57   30   31 2     
@<TRIPOS>SUBSTRUCTURE
      1 ****           1
@<TRIPOS>SET
DONOR_HYDROGENS      STATIC     ATOMS    <user>   **** ""
3 3 13 52
ATOM$RED        STATIC     ATOMS    COLORGROUP SYSTEM
3 3 13 52
