#       Name:                X01
#       Creating user name   gbret
#       Creation time:       Fri Sep  9 18:23:09 2016


#       File generated by GOLD software.
#

@<TRIPOS>MOLECULE
X01
    22    23     1
SMALL
NO_CHARGES


@<TRIPOS>ATOM
      1 N1          -2.0328   3.7126   0.0310 N.pl3          1 <1>                0.0000
      2 C2          -2.0141   2.3327   0.0234 C.ar           1 <1>                0.0000
      3 N3          -3.1573   1.6509   0.0252 N.ar           1 <1>                0.0000
      4 C4          -3.1412   0.3297   0.0180 C.ar           1 <1>                0.0000
      5 N5          -1.9910  -0.3210   0.0090 N.ar           1 <1>                0.0000
      6 C6          -0.8425   0.3537   0.0072 C.ar           1 <1>                0.0000
      7 N7          -0.8553   1.6835   0.0089 N.ar           1 <1>                0.0000
      8 C8           0.4463  -0.3758  -0.0025 C.ar           1 <1>                0.0000
      9 C9           0.4604  -1.7664  -0.0155 C.ar           1 <1>                0.0000
     10 C10          1.6776  -2.4464  -0.0250 C.ar           1 <1>                0.0000
     11 C11          2.8788  -1.7289  -0.0215 C.ar           1 <1>                0.0000
     12 C12          2.8628  -0.3521  -0.0081 C.ar           1 <1>                0.0000
     13 C13          1.6549   0.3332  -0.0044 C.ar           1 <1>                0.0000
     14 O14          1.6450   1.6892   0.0083 O.co2          1 <1>                0.0000
     15 C15          1.6983  -3.8782  -0.0379 C.1            1 <1>                0.0000
     16 N16          1.7148  -5.0140  -0.0482 N.1            1 <1>                0.0000
     17 H17         -1.1995   4.2090   0.0258 H              1 <1>                0.0000
     18 H18         -2.8794   4.1862   0.0376 H              1 <1>                0.0000
     19 H19         -4.0708  -0.2201   0.0198 H              1 <1>                0.0000
     20 H20         -0.4682  -2.3177  -0.0178 H              1 <1>                0.0000
     21 H21          3.8211  -2.2565  -0.0288 H              1 <1>                0.0000
     22 H22          3.7929   0.1969  -0.0047 H              1 <1>                0.0000
@<TRIPOS>BOND
    1    1    2 1     
    2    1   17 1     
    3    1   18 1     
    4    2    7 ar    
    5    2    3 ar    
    6    3    4 ar    
    7    4    5 ar    
    8    4   19 1     
    9    5    6 ar    
   10    6    7 ar    
   11    6    8 1     
   12    8   13 ar    
   13    8    9 ar    
   14    9   10 ar    
   15    9   20 1     
   16   10   11 ar    
   17   10   15 1     
   18   11   12 ar    
   19   11   21 1     
   20   12   13 ar    
   21   12   22 1     
   22   13   14 ar    
   23   15   16 3     
@<TRIPOS>SUBSTRUCTURE
      1 ****           1
@<TRIPOS>SET
DONOR_HYDROGENS      STATIC     ATOMS    <user>   **** ""
2 17 18
ATOM$RED        STATIC     ATOMS    COLORGROUP SYSTEM
2 17 18
