#       Name:                X4B
#       Creating user name   gbret
#       Creation time:       Fri Sep  9 18:28:16 2016


#       File generated by GOLD software.
#

@<TRIPOS>MOLECULE
X4B
    32    33     1
SMALL
NO_CHARGES


@<TRIPOS>ATOM
      1 N1           0.3643   3.8836   0.2304 N.am           1 <1>                0.0000
      2 C2           0.3837   2.5363   0.2567 C.2            1 <1>                0.0000
      3 O3           1.4455   1.9435   0.2650 O.2            1 <1>                0.0000
      4 C4          -0.8819   1.7813   0.2754 C.ar           1 <1>                0.0000
      5 C5          -2.1009   2.4554   0.3902 C.ar           1 <1>                0.0000
      6 C6          -3.2802   1.7449   0.4067 C.ar           1 <1>                0.0000
      7 C7          -3.2659   0.3608   0.3097 C.ar           1 <1>                0.0000
      8 Cl8         -4.7611  -0.5211   0.3313 Cl             1 <1>                0.0000
      9 C9          -2.0694  -0.3194   0.1957 C.ar           1 <1>                0.0000
     10 C10         -0.8705   0.3814   0.1721 C.ar           1 <1>                0.0000
     11 N11          0.3342  -0.3002   0.0575 N.pl3          1 <1>                0.0000
     12 C12          0.3383  -1.7490  -0.1593 C.3            1 <1>                0.0000
     13 C13          1.7605  -2.2397  -0.2475 C.ar           1 <1>                0.0000
     14 C14          2.4126  -2.2860  -1.4705 C.ar           1 <1>                0.0000
     15 C15          3.7204  -2.7445  -1.5039 C.ar           1 <1>                0.0000
     16 C16          4.3267  -3.1374  -0.3255 C.ar           1 <1>                0.0000
     17 N17          3.6756  -3.0802   0.8197 N.ar           1 <1>                0.0000
     18 C18          2.4330  -2.6437   0.8899 C.ar           1 <1>                0.0000
     19 N19         -4.5698   2.4612   0.5289 N.pl3          1 <1>                0.0000
     20 O20         -4.5858   3.6761   0.6146 O.2            1 <1>                0.0000
     21 O21         -5.6148   1.8358   0.5437 O.2            1 <1>                0.0000
     22 H22          1.1973   4.3804   0.2140 H              1 <1>                0.0000
     23 H23         -0.4827   4.3565   0.2238 H              1 <1>                0.0000
     24 H24         -2.1178   3.5326   0.4663 H              1 <1>                0.0000
     25 H25         -2.0662  -1.3968   0.1207 H              1 <1>                0.0000
     26 H26          1.1728   0.1831   0.1211 H              1 <1>                0.0000
     27 H27         -0.1652  -2.2423   0.6722 H              1 <1>                0.0000
     28 H28         -0.1837  -1.9789  -1.0881 H              1 <1>                0.0000
     29 H29          1.9133  -1.9727  -2.3754 H              1 <1>                0.0000
     30 H30          4.2587  -2.7943  -2.4389 H              1 <1>                0.0000
     31 H31          5.3454  -3.4958  -0.3430 H              1 <1>                0.0000
     32 H32          1.9321  -2.6110   1.8462 H              1 <1>                0.0000
@<TRIPOS>BOND
    1    1    2 am    
    2    1   22 1     
    3    1   23 1     
    4    2    3 2     
    5    2    4 1     
    6    4   10 ar    
    7    4    5 ar    
    8    5    6 ar    
    9    5   24 1     
   10    6    7 ar    
   11    6   19 1     
   12    7    8 1     
   13    7    9 ar    
   14    9   10 ar    
   15    9   25 1     
   16   10   11 1     
   17   11   12 1     
   18   11   26 1     
   19   12   13 1     
   20   12   27 1     
   21   12   28 1     
   22   13   18 ar    
   23   13   14 ar    
   24   14   15 ar    
   25   14   29 1     
   26   15   16 ar    
   27   15   30 1     
   28   16   17 ar    
   29   16   31 1     
   30   17   18 ar    
   31   18   32 1     
   32   19   20 2     
   33   19   21 2     
@<TRIPOS>SUBSTRUCTURE
      1 ****           1
@<TRIPOS>SET
DONOR_HYDROGENS      STATIC     ATOMS    <user>   **** ""
3 22 23 26
ATOM$RED        STATIC     ATOMS    COLORGROUP SYSTEM
3 22 23 26
