#       Name:                XIY
#       Creating user name   gbret
#       Creation time:       Fri Sep  9 18:38:42 2016


#       File generated by GOLD software.
#

@<TRIPOS>MOLECULE
XIY
    19    20     1
SMALL
NO_CHARGES


@<TRIPOS>ATOM
      1 O1           2.8799   2.3126  -0.0151 O.3            1 <1>                0.0000
      2 C2           2.8993   0.8837  -0.0230 C.3            1 <1>                0.0000
      3 C3           1.4855   0.3621  -0.0123 C.2            1 <1>                0.0000
      4 N4           1.1553  -0.8964  -0.0103 N.2            1 <1>                0.0000
      5 C5          -0.1974  -1.0134   0.0001 C.ar           1 <1>                0.0000
      6 C6          -1.0703  -2.1047   0.0060 C.ar           1 <1>                0.0000
      7 C7          -2.4203  -1.8963   0.0161 C.ar           1 <1>                0.0000
      8 C8          -2.9379  -0.6087   0.0202 C.ar           1 <1>                0.0000
      9 C9          -2.0958   0.4827   0.0145 C.ar           1 <1>                0.0000
     10 C10         -0.7209   0.2904   0.0047 C.ar           1 <1>                0.0000
     11 N11          0.3685   1.1384   0.0025 N.pl3          1 <1>                0.0000
     12 H12          0.3423   2.1081   0.0085 H              1 <1>                0.0000
     13 H13          3.7578   2.7179  -0.0213 H              1 <1>                0.0000
     14 H14          3.4095   0.5322  -0.9198 H              1 <1>                0.0000
     15 H15          3.4265   0.5227   0.8601 H              1 <1>                0.0000
     16 H16         -0.6783  -3.1110   0.0022 H              1 <1>                0.0000
     17 H17         -3.0917  -2.7423   0.0206 H              1 <1>                0.0000
     18 H18         -4.0077  -0.4607   0.0275 H              1 <1>                0.0000
     19 H19         -2.5038   1.4827   0.0181 H              1 <1>                0.0000
@<TRIPOS>BOND
    1    1    2 1     
    2    1   13 1     
    3    2    3 1     
    4    2   14 1     
    5    2   15 1     
    6    3   11 1     
    7    3    4 2     
    8    4    5 1     
    9    5   10 ar    
   10    5    6 ar    
   11    6    7 ar    
   12    6   16 1     
   13    7    8 ar    
   14    7   17 1     
   15    8    9 ar    
   16    8   18 1     
   17    9   10 ar    
   18    9   19 1     
   19   10   11 1     
   20   11   12 1     
@<TRIPOS>SUBSTRUCTURE
      1 ****           1
@<TRIPOS>SET
DONOR_HYDROGENS      STATIC     ATOMS    <user>   **** ""
2 13 12
ATOM$RED        STATIC     ATOMS    COLORGROUP SYSTEM
2 13 12
