#       Name:                XND
#       Creating user name   gbret
#       Creation time:       Fri Sep  9 18:42:18 2016


#       File generated by GOLD software.
#

@<TRIPOS>MOLECULE
XND
    52    55     1
SMALL
NO_CHARGES


@<TRIPOS>ATOM
      1 C1           0.7905   2.1482   3.8239 C.3            1 <1>                0.0000
      2 C2           0.5020   0.7764   3.2707 C.2            1 <1>                0.0000
      3 O3           0.2070  -0.1302   4.0205 O.2            1 <1>                0.0000
      4 N4           0.5717   0.5569   1.9427 N.am           1 <1>                0.0000
      5 C5           0.2868  -0.7630   1.4223 C.3            1 <1>                0.0000
      6 C6          -0.9349  -0.8358   0.5373 C.2            1 <1>                0.0000
      7 C7          -1.6103   0.2134   0.0383 C.2            1 <1>                0.0000
      8 C8          -2.8310  -0.0029  -0.8409 C.3            1 <1>                0.0000
      9 C9          -2.6785  -1.2958  -1.6397 C.3            1 <1>                0.0000
     10 C10         -3.9207  -1.5207  -2.5041 C.3            1 <1>                0.0000
     11 C11         -1.4363  -1.2124  -2.5289 C.3            1 <1>                0.0000
     12 C12         -2.5264  -2.4477  -0.6388 C.3            1 <1>                0.0000
     13 C13         -1.3507  -2.1561   0.2452 C.2            1 <1>                0.0000
     14 O14         -0.7337  -3.0859   0.7269 O.2            1 <1>                0.0000
     15 N15         -1.3023   1.5152   0.2681 N.pl3          1 <1>                0.0000
     16 C16         -0.0242   2.0594   0.1810 C.ar           1 <1>                0.0000
     17 C17          0.3098   3.0297  -0.7541 C.ar           1 <1>                0.0000
     18 O18         -0.6045   3.4442  -1.6712 O.3            1 <1>                0.0000
     19 C19          1.5881   3.5717  -0.7424 C.ar           1 <1>                0.0000
     20 C20          2.5159   3.1450   0.1904 C.ar           1 <1>                0.0000
     21 C21          2.1896   2.1587   1.1038 C.ar           1 <1>                0.0000
     22 C22          0.9119   1.6068   1.0896 C.ar           1 <1>                0.0000
     23 C23          1.4796  -1.2319   0.6296 C.ar           1 <1>                0.0000
     24 C24          1.5526  -0.9745  -0.7266 C.ar           1 <1>                0.0000
     25 C25          2.6460  -1.4045  -1.4543 C.ar           1 <1>                0.0000
     26 C26          3.6687  -2.0927  -0.8255 C.ar           1 <1>                0.0000
     27 Cl27         5.0423  -2.6324  -1.7396 Cl             1 <1>                0.0000
     28 C28          3.5964  -2.3502   0.5315 C.ar           1 <1>                0.0000
     29 C29          2.5040  -1.9149   1.2605 C.ar           1 <1>                0.0000
     30 Cl30         2.4127  -2.2371   2.9638 Cl             1 <1>                0.0000
     31 H31          1.8534   2.2325   4.0501 H              1 <1>                0.0000
     32 H32          0.5150   2.9025   3.0869 H              1 <1>                0.0000
     33 H33          0.2119   2.3017   4.7347 H              1 <1>                0.0000
     34 H34          0.1459  -1.4428   2.2626 H              1 <1>                0.0000
     35 H35         -3.7208  -0.0676  -0.2146 H              1 <1>                0.0000
     36 H36         -2.9350   0.8367  -1.5282 H              1 <1>                0.0000
     37 H37         -4.0408  -0.6840  -3.1924 H              1 <1>                0.0000
     38 H38         -3.8061  -2.4443  -3.0715 H              1 <1>                0.0000
     39 H39         -4.8002  -1.5940  -1.8644 H              1 <1>                0.0000
     40 H40         -0.5532  -1.0671  -1.9068 H              1 <1>                0.0000
     41 H41         -1.3328  -2.1374  -3.0962 H              1 <1>                0.0000
     42 H42         -1.5379  -0.3735  -3.2173 H              1 <1>                0.0000
     43 H43         -3.4291  -2.5284  -0.0331 H              1 <1>                0.0000
     44 H44         -2.3579  -3.3806  -1.1767 H              1 <1>                0.0000
     45 H45         -2.0278   2.1115   0.5112 H              1 <1>                0.0000
     46 H46         -1.1414   4.1940  -1.3803 H              1 <1>                0.0000
     47 H47          1.8588   4.3282  -1.4640 H              1 <1>                0.0000
     48 H48          3.5022   3.5847   0.2055 H              1 <1>                0.0000
     49 H49          2.9209   1.8210   1.8233 H              1 <1>                0.0000
     50 H50          0.7547  -0.4374  -1.2178 H              1 <1>                0.0000
     51 H51          2.7022  -1.2037  -2.5140 H              1 <1>                0.0000
     52 H52          4.3943  -2.8873   1.0227 H              1 <1>                0.0000
@<TRIPOS>BOND
    1    1    2 1     
    2    1   31 1     
    3    1   32 1     
    4    1   33 1     
    5    2    3 2     
    6    2    4 am    
    7    4   22 1     
    8    4    5 1     
    9    5    6 1     
   10    5   23 1     
   11    5   34 1     
   12    6   13 1     
   13    6    7 2     
   14    7    8 1     
   15    7   15 1     
   16    8    9 1     
   17    8   35 1     
   18    8   36 1     
   19    9   10 1     
   20    9   11 1     
   21    9   12 1     
   22   10   37 1     
   23   10   38 1     
   24   10   39 1     
   25   11   40 1     
   26   11   41 1     
   27   11   42 1     
   28   12   13 1     
   29   12   43 1     
   30   12   44 1     
   31   13   14 2     
   32   15   16 1     
   33   15   45 1     
   34   16   22 ar    
   35   16   17 ar    
   36   17   18 1     
   37   17   19 ar    
   38   18   46 1     
   39   19   20 ar    
   40   19   47 1     
   41   20   21 ar    
   42   20   48 1     
   43   21   22 ar    
   44   21   49 1     
   45   23   29 ar    
   46   23   24 ar    
   47   24   25 ar    
   48   24   50 1     
   49   25   26 ar    
   50   25   51 1     
   51   26   27 1     
   52   26   28 ar    
   53   28   29 ar    
   54   28   52 1     
   55   29   30 1     
@<TRIPOS>SUBSTRUCTURE
      1 ****           1
@<TRIPOS>SET
DONOR_HYDROGENS      STATIC     ATOMS    <user>   **** ""
2 45 46
ATOM$RED        STATIC     ATOMS    COLORGROUP SYSTEM
2 45 46
