#       Name:                XTZ
#       Creating user name   gbret
#       Creation time:       Fri Sep  9 18:46:59 2016


#       File generated by GOLD software.
#

@<TRIPOS>MOLECULE
XTZ
    45    48     1
SMALL
NO_CHARGES


@<TRIPOS>ATOM
      1 N1          -0.8171   8.1631   0.3845 N.pl3          1 <1>                0.0000
      2 C2          -0.7985   6.7942   0.3770 C.2            1 <1>                0.0000
      3 N3          -1.9421   6.1372   0.3790 N.2            1 <1>                0.0000
      4 C4          -1.9655   4.8065   0.3722 C.2            1 <1>                0.0000
      5 N5          -3.1537   4.1005   0.3963 N.pl3          1 <1>                0.0000
      6 C6          -3.1626   2.7707  -0.2337 C.3            1 <1>                0.0000
      7 C7          -1.8686   2.0659   0.0821 C.2            1 <1>                0.0000
      8 C8          -1.8385   0.5595   0.1103 C.3            1 <1>                0.0000
      9 N9          -0.4849   0.1041   0.4367 N.pl3          1 <1>                0.0000
     10 C10         -0.2091  -1.2625   0.5211 C.ar           1 <1>                0.0000
     11 C11         -1.2159  -2.1914   0.2901 C.ar           1 <1>                0.0000
     12 C12         -0.9397  -3.5419   0.3739 C.ar           1 <1>                0.0000
     13 C13          0.3373  -3.9699   0.6877 C.ar           1 <1>                0.0000
     14 C14          1.3418  -3.0480   0.9182 C.ar           1 <1>                0.0000
     15 C15          1.0739  -1.6960   0.8304 C.ar           1 <1>                0.0000
     16 S16          0.6850  -5.6940   0.7946 S.o2           1 <1>                0.0000
     17 O17          1.8261  -5.8220   1.6317 O.2            1 <1>                0.0000
     18 O18         -0.5531  -6.3370   1.0647 O.2            1 <1>                0.0000
     19 N19          1.1526  -6.1942  -0.7131 N.pl3          1 <1>                0.0000
     20 C20          2.3235  -5.7072  -1.2727 C.2            1 <1>                0.0000
     21 N21          3.1257  -4.8640  -0.7005 N.2            1 <1>                0.0000
     22 C22          4.2004  -4.5065  -1.3808 C.2            1 <1>                0.0000
     23 C23          4.3104  -5.0739  -2.5823 C.2            1 <1>                0.0000
     24 S24          2.9244  -6.1361  -2.8148 S.3            1 <1>                0.0000
     25 N25         -0.7880   2.7214   0.3279 N.2            1 <1>                0.0000
     26 C26         -0.7649   4.0838   0.3515 C.2            1 <1>                0.0000
     27 C27          0.4498   4.7986   0.3543 C.2            1 <1>                0.0000
     28 O28          1.5200   4.2130   0.3438 O.2            1 <1>                0.0000
     29 N29          0.3993   6.1487   0.3621 N.am           1 <1>                0.0000
     30 H30          1.2227   6.6614   0.3649 H              1 <1>                0.0000
     31 H31          0.0163   8.6595   0.3792 H              1 <1>                0.0000
     32 H32         -1.6636   8.6366   0.3912 H              1 <1>                0.0000
     33 H33         -3.9498   4.4669   0.8122 H              1 <1>                0.0000
     34 H34         -3.9985   2.1890   0.1549 H              1 <1>                0.0000
     35 H35         -3.2640   2.8797  -1.3135 H              1 <1>                0.0000
     36 H36         -2.5359   0.1962   0.8652 H              1 <1>                0.0000
     37 H37         -2.1265   0.1719  -0.8669 H              1 <1>                0.0000
     38 H38          0.2199   0.7517   0.5942 H              1 <1>                0.0000
     39 H39         -2.2136  -1.8577   0.0457 H              1 <1>                0.0000
     40 H40         -1.7220  -4.2646   0.1945 H              1 <1>                0.0000
     41 H41          2.3380  -3.3856   1.1630 H              1 <1>                0.0000
     42 H42          1.8589  -0.9765   1.0102 H              1 <1>                0.0000
     43 H43          0.6072  -6.8280  -1.2047 H              1 <1>                0.0000
     44 H44          4.9307  -3.8106  -0.9950 H              1 <1>                0.0000
     45 H45          5.1117  -4.9134  -3.2884 H              1 <1>                0.0000
@<TRIPOS>BOND
    1    1    2 1     
    2    1   31 1     
    3    1   32 1     
    4    2   29 1     
    5    2    3 2     
    6    3    4 1     
    7    4   26 2     
    8    4    5 1     
    9    5    6 1     
   10    5   33 1     
   11    6    7 1     
   12    6   34 1     
   13    6   35 1     
   14    7    8 1     
   15    7   25 2     
   16    8    9 1     
   17    8   36 1     
   18    8   37 1     
   19    9   10 1     
   20    9   38 1     
   21   10   15 ar    
   22   10   11 ar    
   23   11   12 ar    
   24   11   39 1     
   25   12   13 ar    
   26   12   40 1     
   27   13   14 ar    
   28   13   16 1     
   29   14   15 ar    
   30   14   41 1     
   31   15   42 1     
   32   16   17 2     
   33   16   18 2     
   34   16   19 1     
   35   19   20 1     
   36   19   43 1     
   37   20   24 1     
   38   20   21 2     
   39   21   22 1     
   40   22   23 2     
   41   22   44 1     
   42   23   24 1     
   43   23   45 1     
   44   25   26 1     
   45   26   27 1     
   46   27   28 2     
   47   27   29 am    
   48   29   30 1     
@<TRIPOS>SUBSTRUCTURE
      1 ****           1
@<TRIPOS>SET
DONOR_HYDROGENS      STATIC     ATOMS    <user>   **** ""
6 31 32 33 38 43 30
ATOM$RED        STATIC     ATOMS    COLORGROUP SYSTEM
6 31 32 33 38 43 30
