#       Name:                XX5
#       Creating user name   gbret
#       Creation time:       Fri Sep  9 18:48:02 2016


#       File generated by GOLD software.
#

@<TRIPOS>MOLECULE
XX5
    50    51     1
SMALL
NO_CHARGES


@<TRIPOS>ATOM
      1 C1          -0.3237   2.6574  -2.6508 C.3            1 <1>                0.0000
      2 C2          -1.4459   2.2986  -1.6746 C.3            1 <1>                0.0000
      3 C3          -2.4930   1.4449  -2.3928 C.3            1 <1>                0.0000
      4 C4          -0.8660   1.5114  -0.4978 C.3            1 <1>                0.0000
      5 C5          -1.9603   1.2720   0.5443 C.3            1 <1>                0.0000
      6 N6          -1.4167   0.4723   1.6502 N.4            1 <1>                0.0000
      7 H7          -0.5877   0.9191   2.0126 H              1 <1>                0.0000
      8 H8          -2.1066   0.3987   2.3829 H              1 <1>                0.0000
      9 C9          -1.0757  -0.8705   1.1620 C.3            1 <1>                0.0000
     10 C10         -0.3848  -1.6583   2.2769 C.3            1 <1>                0.0000
     11 C11          0.9336  -1.0080   2.6088 C.2            1 <1>                0.0000
     12 C12          1.1318   0.0151   3.4617 C.2            1 <1>                0.0000
     13 N13          2.4432   0.2964   3.4745 N.2            1 <1>                0.0000
     14 C14          3.0651  -0.5136   2.6620 C.2            1 <1>                0.0000
     15 N15          2.1604  -1.3477   2.1057 N.pl3          1 <1>                0.0000
     16 C16          2.4387  -2.4110   1.1371 C.3            1 <1>                0.0000
     17 C17          2.2209  -1.8882  -0.2594 C.ar           1 <1>                0.0000
     18 C18          0.9743  -1.9883  -0.8479 C.ar           1 <1>                0.0000
     19 C19          0.7738  -1.5088  -2.1302 C.ar           1 <1>                0.0000
     20 Cl20        -0.7920  -1.6346  -2.8692 Cl             1 <1>                0.0000
     21 C21          1.8212  -0.9288  -2.8230 C.ar           1 <1>                0.0000
     22 C22          3.0685  -0.8285  -2.2334 C.ar           1 <1>                0.0000
     23 Cl23         4.3834  -0.1002  -3.1019 Cl             1 <1>                0.0000
     24 C24          3.2664  -1.3036  -0.9490 C.ar           1 <1>                0.0000
     25 C25         -2.3337  -1.5880   0.7453 C.2            1 <1>                0.0000
     26 O26         -2.2663  -2.5644   0.0183 O.co2          1 <1>                0.0000
     27 O27         -3.4190  -1.1921   1.1353 O.co2          1 <1>                0.0000
     28 C28         -2.4479   2.5959   1.0740 C.2            1 <1>                0.0000
     29 O29         -3.2563   3.2477   0.4352 O.co2          1 <1>                0.0000
     30 O30         -2.0339   3.0153   2.1414 O.co2          1 <1>                0.0000
     31 H31         -0.7368   3.2182  -3.4891 H              1 <1>                0.0000
     32 H32          0.4222   3.2656  -2.1391 H              1 <1>                0.0000
     33 H33          0.1430   1.7440  -3.0194 H              1 <1>                0.0000
     34 H34         -1.9127   3.2121  -1.3060 H              1 <1>                0.0000
     35 H35         -2.0147   0.5593  -2.8113 H              1 <1>                0.0000
     36 H36         -3.2628   1.1411  -1.6834 H              1 <1>                0.0000
     37 H37         -2.9473   2.0260  -3.1953 H              1 <1>                0.0000
     38 H38         -0.4868   0.5533  -0.8532 H              1 <1>                0.0000
     39 H39         -0.0524   2.0794  -0.0465 H              1 <1>                0.0000
     40 H40         -2.7906   0.7372   0.0831 H              1 <1>                0.0000
     41 H41         -0.4050  -0.7868   0.3069 H              1 <1>                0.0000
     42 H42         -1.0193  -1.6662   3.1632 H              1 <1>                0.0000
     43 H43         -0.2116  -2.6820   1.9449 H              1 <1>                0.0000
     44 H44          0.3687   0.5205   4.0349 H              1 <1>                0.0000
     45 H45          4.1278  -0.5186   2.4694 H              1 <1>                0.0000
     46 H46          3.4725  -2.7393   1.2451 H              1 <1>                0.0000
     47 H47          1.7696  -3.2521   1.3187 H              1 <1>                0.0000
     48 H48          0.1566  -2.4412  -0.3068 H              1 <1>                0.0000
     49 H49          1.6653  -0.5547  -3.8241 H              1 <1>                0.0000
     50 H50          4.2401  -1.2250  -0.4884 H              1 <1>                0.0000
@<TRIPOS>BOND
    1    1    2 1     
    2    1   31 1     
    3    1   32 1     
    4    1   33 1     
    5    2    3 1     
    6    2    4 1     
    7    2   34 1     
    8    3   35 1     
    9    3   36 1     
   10    3   37 1     
   11    4    5 1     
   12    4   38 1     
   13    4   39 1     
   14    5    6 1     
   15    5   28 1     
   16    5   40 1     
   17    6    7 1     
   18    6    8 1     
   19    6    9 1     
   20    9   10 1     
   21    9   25 1     
   22    9   41 1     
   23   10   11 1     
   24   10   42 1     
   25   10   43 1     
   26   11   15 1     
   27   11   12 2     
   28   12   13 1     
   29   12   44 1     
   30   13   14 2     
   31   14   15 1     
   32   14   45 1     
   33   15   16 1     
   34   16   17 1     
   35   16   46 1     
   36   16   47 1     
   37   17   24 ar    
   38   17   18 ar    
   39   18   19 ar    
   40   18   48 1     
   41   19   20 1     
   42   19   21 ar    
   43   21   22 ar    
   44   21   49 1     
   45   22   23 1     
   46   22   24 ar    
   47   24   50 1     
   48   25   26 ar    
   49   25   27 ar    
   50   28   29 ar    
   51   28   30 ar    
@<TRIPOS>SUBSTRUCTURE
      1 ****           1
@<TRIPOS>SET
DONOR_HYDROGENS      STATIC     ATOMS    <user>   **** ""
2 7 8
ATOM$RED        STATIC     ATOMS    COLORGROUP SYSTEM
2 7 8
