#       Name:                Y1Z
#       Creating user name   gbret
#       Creation time:       Fri Sep  9 18:52:22 2016


#       File generated by GOLD software.
#

@<TRIPOS>MOLECULE
Y1Z
    60    65     1
SMALL
NO_CHARGES


@<TRIPOS>ATOM
      1 C1           1.7097  -0.7678  -5.0669 C.3            1 <1>                0.0000
      2 C2           0.2437  -1.0953  -4.9465 C.2            1 <1>                0.0000
      3 N3          -0.5645  -1.3976  -5.9300 N.2            1 <1>                0.0000
      4 N4          -1.7486  -1.6210  -5.4785 N.2            1 <1>                0.0000
      5 C5          -1.7558  -1.4709  -4.1706 C.2            1 <1>                0.0000
      6 C6          -2.7918  -1.5927  -3.1403 C.ar           1 <1>                0.0000
      7 C7          -4.1067  -1.9356  -3.4516 C.ar           1 <1>                0.0000
      8 C8          -5.0401  -2.0365  -2.4438 C.ar           1 <1>                0.0000
      9 C9          -4.6834  -1.8001  -1.1226 C.ar           1 <1>                0.0000
     10 C10         -3.3902  -1.4598  -0.7931 C.ar           1 <1>                0.0000
     11 C11         -2.4283  -1.3522  -1.7967 C.ar           1 <1>                0.0000
     12 C12         -1.0352  -0.9924  -1.4957 C.2            1 <1>                0.0000
     13 N13         -0.1549  -0.8996  -2.4595 N.2            1 <1>                0.0000
     14 N14         -0.4792  -1.1362  -3.7948 N.pl3          1 <1>                0.0000
     15 C15         -0.6265  -0.7333  -0.0963 C.ar           1 <1>                0.0000
     16 C16         -1.0257  -1.6019   0.9199 C.ar           1 <1>                0.0000
     17 C17         -0.6453  -1.3611   2.2237 C.ar           1 <1>                0.0000
     18 C18          0.1350  -0.2542   2.5290 C.ar           1 <1>                0.0000
     19 N19          0.5184  -0.0136   3.8512 N.3            1 <1>                0.0000
     20 C20         -0.6532   0.2458   4.7005 C.3            1 <1>                0.0000
     21 C21         -0.1852   0.5623   6.1235 C.3            1 <1>                0.0000
     22 O22          0.6077  -0.5232   6.6117 O.3            1 <1>                0.0000
     23 C23          1.7575  -0.8030   5.8086 C.3            1 <1>                0.0000
     24 C24          1.3092  -1.1333   4.3825 C.3            1 <1>                0.0000
     25 C25          0.5377   0.6188   1.5163 C.ar           1 <1>                0.0000
     26 N26          1.3251   1.7347   1.8251 N.pl3          1 <1>                0.0000
     27 S27          1.2335   3.0974   0.8885 S.o2           1 <1>                0.0000
     28 O28         -0.1492   3.3435   0.6724 O.2            1 <1>                0.0000
     29 O29          2.1095   4.0487   1.4775 O.2            1 <1>                0.0000
     30 C30          1.9193   2.6964  -0.6842 C.ar           1 <1>                0.0000
     31 C31          1.1279   2.7463  -1.8165 C.ar           1 <1>                0.0000
     32 C32          1.6658   2.4318  -3.0503 C.ar           1 <1>                0.0000
     33 C33          2.9955   2.0671  -3.1528 C.ar           1 <1>                0.0000
     34 C34          3.7877   2.0169  -2.0215 C.ar           1 <1>                0.0000
     35 C35          3.2512   2.3371  -0.7869 C.ar           1 <1>                0.0000
     36 Cl36         4.2457   2.2742   0.6347 Cl             1 <1>                0.0000
     37 C37          0.1630   0.3766   0.2067 C.ar           1 <1>                0.0000
     38 H38          2.2945  -1.6841  -4.9861 H              1 <1>                0.0000
     39 H39          1.8993  -0.2998  -6.0329 H              1 <1>                0.0000
     40 H40          1.9957  -0.0827  -4.2689 H              1 <1>                0.0000
     41 H41         -4.3918  -2.1206  -4.4768 H              1 <1>                0.0000
     42 H42         -6.0593  -2.3017  -2.6833 H              1 <1>                0.0000
     43 H43         -5.4284  -1.8838  -0.3451 H              1 <1>                0.0000
     44 H44         -3.1226  -1.2772   0.2372 H              1 <1>                0.0000
     45 H45         -1.6333  -2.4634   0.6855 H              1 <1>                0.0000
     46 H46         -0.9555  -2.0349   3.0087 H              1 <1>                0.0000
     47 H47         -1.2100   1.0945   4.3033 H              1 <1>                0.0000
     48 H48         -1.2941  -0.6357   4.7158 H              1 <1>                0.0000
     49 H49          0.4116   1.4744   6.1159 H              1 <1>                0.0000
     50 H50         -1.0522   0.6992   6.7698 H              1 <1>                0.0000
     51 H51          2.4108   0.0694   5.7919 H              1 <1>                0.0000
     52 H52          2.2956  -1.6535   6.2272 H              1 <1>                0.0000
     53 H53          0.6997  -2.0369   4.3927 H              1 <1>                0.0000
     54 H54          2.1850  -1.2913   3.7531 H              1 <1>                0.0000
     55 H55          1.9242   1.7096   2.5875 H              1 <1>                0.0000
     56 H56          0.0891   3.0307  -1.7371 H              1 <1>                0.0000
     57 H57          1.0470   2.4705  -3.9347 H              1 <1>                0.0000
     58 H58          3.4151   1.8211  -4.1171 H              1 <1>                0.0000
     59 H59          4.8262   1.7317  -2.1017 H              1 <1>                0.0000
     60 H60          0.4735   1.0502  -0.5783 H              1 <1>                0.0000
@<TRIPOS>BOND
    1    1    2 1     
    2    1   38 1     
    3    1   39 1     
    4    1   40 1     
    5    2   14 1     
    6    2    3 2     
    7    3    4 1     
    8    4    5 2     
    9    5   14 1     
   10    5    6 1     
   11    6   11 ar    
   12    6    7 ar    
   13    7    8 ar    
   14    7   41 1     
   15    8    9 ar    
   16    8   42 1     
   17    9   10 ar    
   18    9   43 1     
   19   10   11 ar    
   20   10   44 1     
   21   11   12 1     
   22   12   13 2     
   23   12   15 1     
   24   13   14 1     
   25   15   37 ar    
   26   15   16 ar    
   27   16   17 ar    
   28   16   45 1     
   29   17   18 ar    
   30   17   46 1     
   31   18   19 1     
   32   18   25 ar    
   33   19   24 1     
   34   19   20 1     
   35   20   21 1     
   36   20   47 1     
   37   20   48 1     
   38   21   22 1     
   39   21   49 1     
   40   21   50 1     
   41   22   23 1     
   42   23   24 1     
   43   23   51 1     
   44   23   52 1     
   45   24   53 1     
   46   24   54 1     
   47   25   26 1     
   48   25   37 ar    
   49   26   27 1     
   50   26   55 1     
   51   27   28 2     
   52   27   29 2     
   53   27   30 1     
   54   30   35 ar    
   55   30   31 ar    
   56   31   32 ar    
   57   31   56 1     
   58   32   33 ar    
   59   32   57 1     
   60   33   34 ar    
   61   33   58 1     
   62   34   35 ar    
   63   34   59 1     
   64   35   36 1     
   65   37   60 1     
@<TRIPOS>SUBSTRUCTURE
      1 ****           1
@<TRIPOS>SET
DONOR_HYDROGENS      STATIC     ATOMS    <user>   **** ""
1 55
ATOM$RED        STATIC     ATOMS    COLORGROUP SYSTEM
1 55
