#       Name:                Y2F
#       Creating user name   gbret
#       Creation time:       Fri Sep  9 18:52:43 2016


#       File generated by GOLD software.
#

@<TRIPOS>MOLECULE
Y2F
    61    63     1
SMALL
NO_CHARGES


@<TRIPOS>ATOM
      1 C1          -2.6385   0.9703  -2.7414 C.3            1 <1>                0.0000
      2 C2          -2.6177  -0.5596  -2.7498 C.3            1 <1>                0.0000
      3 C3          -1.9016  -1.0530  -4.0086 C.3            1 <1>                0.0000
      4 C4          -1.9882  -2.5558  -4.0793 C.ar           1 <1>                0.0000
      5 C5          -1.0078  -3.3330  -3.4904 C.ar           1 <1>                0.0000
      6 C6          -1.0857  -4.7115  -3.5549 C.ar           1 <1>                0.0000
      7 C7          -2.1441  -5.3147  -4.2079 C.ar           1 <1>                0.0000
      8 C8          -3.1264  -4.5376  -4.7975 C.ar           1 <1>                0.0000
      9 F9          -4.1614  -5.1261  -5.4359 F              1 <1>                0.0000
     10 C10         -3.0501  -3.1567  -4.7278 C.ar           1 <1>                0.0000
     11 N11         -1.9072  -1.0462  -1.5597 N.4            1 <1>                0.0000
     12 H12         -1.8216  -2.0505  -1.6063 H              1 <1>                0.0000
     13 H13         -0.9881  -0.6316  -1.5237 H              1 <1>                0.0000
     14 C14         -2.6596  -0.6744  -0.3540 C.3            1 <1>                0.0000
     15 C15         -1.9197  -1.1812   0.8855 C.3            1 <1>                0.0000
     16 O16         -0.6649  -0.5070   1.0000 O.3            1 <1>                0.0000
     17 C17          0.1099  -0.9093   2.1314 C.3            1 <1>                0.0000
     18 C18          1.1057  -2.0193   1.7321 C.3            1 <1>                0.0000
     19 N19          2.3313  -1.7231   2.5177 N.4            1 <1>                0.0000
     20 H20          2.2269  -2.0438   3.4687 H              1 <1>                0.0000
     21 H21          3.1379  -2.1503   2.0878 H              1 <1>                0.0000
     22 C22          2.4413  -0.2421   2.4780 C.3            1 <1>                0.0000
     23 C23          0.9885   0.2599   2.6221 C.3            1 <1>                0.0000
     24 C24          0.7643   1.4960   1.7488 C.3            1 <1>                0.0000
     25 C25          1.5921   2.6399   2.2755 C.ar           1 <1>                0.0000
     26 C26          2.4680   3.2926   1.4311 C.ar           1 <1>                0.0000
     27 C27          3.2277   4.3461   1.9215 C.ar           1 <1>                0.0000
     28 C28          4.1933   5.0811   1.0279 C.3            1 <1>                0.0000
     29 C29          3.0782   4.7061   3.2488 C.ar           1 <1>                0.0000
     30 C30          2.1768   4.0046   4.0426 C.ar           1 <1>                0.0000
     31 N31          2.0165   4.3557   5.3780 N.pl3          1 <1>                0.0000
     32 N32          1.4664   3.0083   3.5362 N.ar           1 <1>                0.0000
     33 H33         -1.6159   1.3476  -2.7491 H              1 <1>                0.0000
     34 H34         -3.1657   1.3313  -3.6244 H              1 <1>                0.0000
     35 H35         -3.1487   1.3218  -1.8446 H              1 <1>                0.0000
     36 H36         -3.6403  -0.9369  -2.7420 H              1 <1>                0.0000
     37 H37         -2.3754  -0.6199  -4.8895 H              1 <1>                0.0000
     38 H38         -0.8550  -0.7506  -3.9733 H              1 <1>                0.0000
     39 H39         -0.1805  -2.8625  -2.9800 H              1 <1>                0.0000
     40 H40         -0.3190  -5.3175  -3.0951 H              1 <1>                0.0000
     41 H41         -2.2045  -6.3918  -4.2584 H              1 <1>                0.0000
     42 H42         -3.8161  -2.5494  -5.1871 H              1 <1>                0.0000
     43 H43         -2.7522   0.4105  -0.3037 H              1 <1>                0.0000
     44 H44         -3.6526  -1.1223  -0.3929 H              1 <1>                0.0000
     45 H45         -2.5205  -0.9839   1.7733 H              1 <1>                0.0000
     46 H46         -1.7488  -2.2538   0.7934 H              1 <1>                0.0000
     47 H47         -0.5429  -1.2546   2.9330 H              1 <1>                0.0000
     48 H48          0.7101  -2.9991   1.9996 H              1 <1>                0.0000
     49 H49          1.3184  -1.9730   0.6640 H              1 <1>                0.0000
     50 H50          3.0513   0.1162   3.3072 H              1 <1>                0.0000
     51 H51          2.8630   0.0823   1.5266 H              1 <1>                0.0000
     52 H52          0.7682   0.4872   3.6651 H              1 <1>                0.0000
     53 H53          1.0606   1.2751   0.7234 H              1 <1>                0.0000
     54 H54         -0.2904   1.7703   1.7712 H              1 <1>                0.0000
     55 H55          2.5614   2.9865   0.3996 H              1 <1>                0.0000
     56 H56          3.6820   5.9170   0.5503 H              1 <1>                0.0000
     57 H57          5.0255   5.4566   1.6233 H              1 <1>                0.0000
     58 H58          4.5706   4.4015   0.2638 H              1 <1>                0.0000
     59 H59          3.6537   5.5207   3.6632 H              1 <1>                0.0000
     60 H60          2.5321   5.0870   5.7524 H              1 <1>                0.0000
     61 H61          1.3890   3.8694   5.9354 H              1 <1>                0.0000
@<TRIPOS>BOND
    1    1    2 1     
    2    1   33 1     
    3    1   34 1     
    4    1   35 1     
    5    2    3 1     
    6    2   11 1     
    7    2   36 1     
    8    3    4 1     
    9    3   37 1     
   10    3   38 1     
   11    4   10 ar    
   12    4    5 ar    
   13    5    6 ar    
   14    5   39 1     
   15    6    7 ar    
   16    6   40 1     
   17    7    8 ar    
   18    7   41 1     
   19    8    9 1     
   20    8   10 ar    
   21   10   42 1     
   22   11   12 1     
   23   11   13 1     
   24   11   14 1     
   25   14   15 1     
   26   14   43 1     
   27   14   44 1     
   28   15   16 1     
   29   15   45 1     
   30   15   46 1     
   31   16   17 1     
   32   17   23 1     
   33   17   18 1     
   34   17   47 1     
   35   18   19 1     
   36   18   48 1     
   37   18   49 1     
   38   19   20 1     
   39   19   21 1     
   40   19   22 1     
   41   22   23 1     
   42   22   50 1     
   43   22   51 1     
   44   23   24 1     
   45   23   52 1     
   46   24   25 1     
   47   24   53 1     
   48   24   54 1     
   49   25   32 ar    
   50   25   26 ar    
   51   26   27 ar    
   52   26   55 1     
   53   27   28 1     
   54   27   29 ar    
   55   28   56 1     
   56   28   57 1     
   57   28   58 1     
   58   29   30 ar    
   59   29   59 1     
   60   30   31 1     
   61   30   32 ar    
   62   31   60 1     
   63   31   61 1     
@<TRIPOS>SUBSTRUCTURE
      1 ****           1
@<TRIPOS>SET
DONOR_HYDROGENS      STATIC     ATOMS    <user>   **** ""
6 12 13 20 21 60 61
ATOM$RED        STATIC     ATOMS    COLORGROUP SYSTEM
6 12 13 20 21 60 61
