#       Name:                YRG
#       Creating user name   gbret
#       Creation time:       Fri Sep  9 19:03:11 2016


#       File generated by GOLD software.
#

@<TRIPOS>MOLECULE
YRG
    31    32     1
SMALL
NO_CHARGES


@<TRIPOS>ATOM
      1 O1           1.7613  -3.4579   0.2318 O.co2          1 <1>                0.0000
      2 C2           1.9512  -2.2539   0.2585 C.2            1 <1>                0.0000
      3 O3           3.0857  -1.8139   0.1828 O.co2          1 <1>                0.0000
      4 C4           0.7831  -1.3093   0.3789 C.3            1 <1>                0.0000
      5 C5           0.1037  -1.5086   1.7352 C.3            1 <1>                0.0000
      6 C6          -1.1351  -0.6535   1.8069 C.ar           1 <1>                0.0000
      7 C7          -1.0556   0.6391   2.2905 C.ar           1 <1>                0.0000
      8 C8          -2.1920   1.4235   2.3563 C.ar           1 <1>                0.0000
      9 C9          -3.4077   0.9155   1.9381 C.ar           1 <1>                0.0000
     10 C10         -3.4870  -0.3768   1.4537 C.ar           1 <1>                0.0000
     11 C11         -2.3499  -1.1597   1.3839 C.ar           1 <1>                0.0000
     12 O12          1.2471   0.0380   0.2719 O.3            1 <1>                0.0000
     13 C13          1.3972   0.5413  -0.9817 C.ar           1 <1>                0.0000
     14 C14          1.2081  -0.2770  -2.0858 C.ar           1 <1>                0.0000
     15 C15          1.3611   0.2364  -3.3592 C.ar           1 <1>                0.0000
     16 C16          1.7033   1.5656  -3.5337 C.ar           1 <1>                0.0000
     17 Cl17         1.8957   2.2083  -5.1349 Cl             1 <1>                0.0000
     18 C18          1.8920   2.3835  -2.4337 C.ar           1 <1>                0.0000
     19 C19          1.7343   1.8752  -1.1588 C.ar           1 <1>                0.0000
     20 H20          0.0684  -1.5119  -0.4188 H              1 <1>                0.0000
     21 H21         -0.1710  -2.5568   1.8534 H              1 <1>                0.0000
     22 H22          0.7904  -1.2210   2.5313 H              1 <1>                0.0000
     23 H23         -0.1058   1.0360   2.6172 H              1 <1>                0.0000
     24 H24         -2.1300   2.4331   2.7348 H              1 <1>                0.0000
     25 H25         -4.2956   1.5281   1.9902 H              1 <1>                0.0000
     26 H26         -4.4368  -0.7738   1.1273 H              1 <1>                0.0000
     27 H27         -2.4118  -2.1694   1.0055 H              1 <1>                0.0000
     28 H28          0.9416  -1.3147  -1.9500 H              1 <1>                0.0000
     29 H29          1.2139  -0.4003  -4.2190 H              1 <1>                0.0000
     30 H30          2.1587   3.4209  -2.5719 H              1 <1>                0.0000
     31 H31          1.8816   2.5139  -0.3004 H              1 <1>                0.0000
@<TRIPOS>BOND
    1    1    2 ar    
    2    2    3 ar    
    3    2    4 1     
    4    4    5 1     
    5    4   12 1     
    6    4   20 1     
    7    5    6 1     
    8    5   21 1     
    9    5   22 1     
   10    6   11 ar    
   11    6    7 ar    
   12    7    8 ar    
   13    7   23 1     
   14    8    9 ar    
   15    8   24 1     
   16    9   10 ar    
   17    9   25 1     
   18   10   11 ar    
   19   10   26 1     
   20   11   27 1     
   21   12   13 1     
   22   13   19 ar    
   23   13   14 ar    
   24   14   15 ar    
   25   14   28 1     
   26   15   16 ar    
   27   15   29 1     
   28   16   17 1     
   29   16   18 ar    
   30   18   19 ar    
   31   18   30 1     
   32   19   31 1     
@<TRIPOS>SUBSTRUCTURE
      1 ****           1
