#       Name:                YU7
#       Creating user name   gbret
#       Creation time:       Fri Sep  9 19:04:51 2016


#       File generated by GOLD software.
#

@<TRIPOS>MOLECULE
YU7
    38    40     1
SMALL
NO_CHARGES


@<TRIPOS>ATOM
      1 O1           1.3906   4.9182  -0.8033 O.3            1 <1>                0.0000
      2 N2           1.4098   3.5023  -0.8111 N.am           1 <1>                0.0000
      3 C3           0.2519   2.8126  -0.8037 C.2            1 <1>                0.0000
      4 O4          -0.8097   3.4064  -0.7904 O.2            1 <1>                0.0000
      5 C5           0.2718   1.3415  -0.8118 C.2            1 <1>                0.0000
      6 C6           1.3743   0.5347  -0.8207 C.2            1 <1>                0.0000
      7 N7           0.9690  -0.7499  -0.8255 N.pl3          1 <1>                0.0000
      8 C8           1.8661  -1.9081  -0.8353 C.3            1 <1>                0.0000
      9 C9           2.1802  -2.3121   0.5821 C.ar           1 <1>                0.0000
     10 C10          3.3242  -1.8402   1.1981 C.ar           1 <1>                0.0000
     11 C11          3.6125  -2.2107   2.4981 C.ar           1 <1>                0.0000
     12 C12          2.7569  -3.0534   3.1833 C.ar           1 <1>                0.0000
     13 C13          1.6129  -3.5258   2.5686 C.ar           1 <1>                0.0000
     14 C14          1.3209  -3.1507   1.2690 C.ar           1 <1>                0.0000
     15 Cl15        -0.1160  -3.7438   0.4961 Cl             1 <1>                0.0000
     16 C16         -0.3913  -0.8221  -0.8201 C.2            1 <1>                0.0000
     17 C17         -0.8935   0.4391  -0.8055 C.2            1 <1>                0.0000
     18 C18         -2.3239   0.8295  -0.7953 C.ar           1 <1>                0.0000
     19 C19         -2.7895   1.7562   0.1361 C.ar           1 <1>                0.0000
     20 C20         -4.1218   2.1162   0.1406 C.ar           1 <1>                0.0000
     21 C21         -4.9947   1.5588  -0.7765 C.ar           1 <1>                0.0000
     22 C22         -4.5383   0.6383  -1.7027 C.ar           1 <1>                0.0000
     23 C23         -3.2070   0.2755  -1.7207 C.ar           1 <1>                0.0000
     24 H24          2.2685   5.3235  -0.8095 H              1 <1>                0.0000
     25 H25          2.2563   3.0288  -0.8217 H              1 <1>                0.0000
     26 H26          2.4006   0.8710  -0.8236 H              1 <1>                0.0000
     27 H27          1.3826  -2.7378  -1.3510 H              1 <1>                0.0000
     28 H28          2.7898  -1.6478  -1.3521 H              1 <1>                0.0000
     29 H29          3.9931  -1.1822   0.6633 H              1 <1>                0.0000
     30 H30          4.5066  -1.8420   2.9788 H              1 <1>                0.0000
     31 H31          2.9829  -3.3428   4.1989 H              1 <1>                0.0000
     32 H32          0.9448  -4.1844   3.1037 H              1 <1>                0.0000
     33 H33         -0.9736  -1.7316  -0.8228 H              1 <1>                0.0000
     34 H34         -2.1090   2.1914   0.8529 H              1 <1>                0.0000
     35 H35         -4.4836   2.8341   0.8617 H              1 <1>                0.0000
     36 H36         -6.0365   1.8432  -0.7690 H              1 <1>                0.0000
     37 H37         -5.2244   0.2062  -2.4161 H              1 <1>                0.0000
     38 H38         -2.8517  -0.4430  -2.4445 H              1 <1>                0.0000
@<TRIPOS>BOND
    1    1    2 1     
    2    1   24 1     
    3    2    3 am    
    4    2   25 1     
    5    3    4 2     
    6    3    5 1     
    7    5   17 1     
    8    5    6 2     
    9    6    7 1     
   10    6   26 1     
   11    7    8 1     
   12    7   16 1     
   13    8    9 1     
   14    8   27 1     
   15    8   28 1     
   16    9   14 ar    
   17    9   10 ar    
   18   10   11 ar    
   19   10   29 1     
   20   11   12 ar    
   21   11   30 1     
   22   12   13 ar    
   23   12   31 1     
   24   13   14 ar    
   25   13   32 1     
   26   14   15 1     
   27   16   17 2     
   28   16   33 1     
   29   17   18 1     
   30   18   23 ar    
   31   18   19 ar    
   32   19   20 ar    
   33   19   34 1     
   34   20   21 ar    
   35   20   35 1     
   36   21   22 ar    
   37   21   36 1     
   38   22   23 ar    
   39   22   37 1     
   40   23   38 1     
@<TRIPOS>SUBSTRUCTURE
      1 ****           1
@<TRIPOS>SET
DONOR_HYDROGENS      STATIC     ATOMS    <user>   **** ""
2 24 25
ATOM$RED        STATIC     ATOMS    COLORGROUP SYSTEM
2 24 25
