#       Name:                YVN
#       Creating user name   gbret
#       Creation time:       Fri Sep  9 19:05:07 2016


#       File generated by GOLD software.
#

@<TRIPOS>MOLECULE
YVN
    64    65     1
SMALL
NO_CHARGES


@<TRIPOS>ATOM
      1 C1           1.3974   5.5944  -1.4532 C.3            1 <1>                0.0000
      2 N2           1.3121   4.1575  -1.7261 N.am           1 <1>                0.0000
      3 C3           0.1129   3.5837  -1.9475 C.2            1 <1>                0.0000
      4 O4          -0.8956   4.2568  -1.9208 O.2            1 <1>                0.0000
      5 C5           0.0252   2.1057  -2.2283 C.3            1 <1>                0.0000
      6 C6          -0.5565   1.2115  -1.1315 C.3            1 <1>                0.0000
      7 C7          -1.3698   1.4998  -2.3949 C.3            1 <1>                0.0000
      8 C8          -2.5510   2.4267  -2.2657 C.ar           1 <1>                0.0000
      9 C9          -3.0054   3.1236  -3.3700 C.ar           1 <1>                0.0000
     10 C10         -4.0880   3.9739  -3.2542 C.ar           1 <1>                0.0000
     11 C11         -4.7195   4.1280  -2.0286 C.ar           1 <1>                0.0000
     12 O12         -5.7850   4.9635  -1.9122 O.3            1 <1>                0.0000
     13 P13         -7.2052   4.2555  -2.1838 P.3            1 <1>                0.0000
     14 O14         -7.4721   3.1790  -1.0773 O.co2          1 <1>                0.0000
     15 O15         -8.3414   5.3336  -2.1484 O.co2          1 <1>                0.0000
     16 O16         -7.1841   3.5650  -3.5899 O.co2          1 <1>                0.0000
     17 C17         -4.2619   3.4273  -0.9222 C.ar           1 <1>                0.0000
     18 C18         -3.1820   2.5745  -1.0443 C.ar           1 <1>                0.0000
     19 C19          0.0253  -0.1702  -0.9786 C.2            1 <1>                0.0000
     20 O20         -0.1587  -1.0043  -1.8396 O.2            1 <1>                0.0000
     21 N21          0.7502  -0.4790   0.1148 N.am           1 <1>                0.0000
     22 C22          1.3158  -1.8222   0.2634 C.3            1 <1>                0.0000
     23 C23          2.6584  -1.8938  -0.4667 C.3            1 <1>                0.0000
     24 C24          2.4294  -1.7397  -1.9716 C.3            1 <1>                0.0000
     25 C25          3.5689  -0.7684   0.0285 C.3            1 <1>                0.0000
     26 C26          1.5227  -2.1212   1.7259 C.2            1 <1>                0.0000
     27 O27          1.3918  -1.2405   2.5493 O.2            1 <1>                0.0000
     28 N28          1.8533  -3.3673   2.1188 N.am           1 <1>                0.0000
     29 C29          1.9528  -3.6833   3.5458 C.3            1 <1>                0.0000
     30 C30          1.7166  -5.1805   3.7544 C.3            1 <1>                0.0000
     31 C31          0.3013  -5.5245   3.3676 C.2            1 <1>                0.0000
     32 N32         -0.1351  -6.7956   3.4693 N.am           1 <1>                0.0000
     33 O33         -0.4450  -4.6575   2.9648 O.2            1 <1>                0.0000
     34 C34          3.3259  -3.3167   4.0469 C.2            1 <1>                0.0000
     35 N35          3.6480  -3.5202   5.3397 N.am           1 <1>                0.0000
     36 O36          4.1412  -2.8386   3.2869 O.2            1 <1>                0.0000
     37 H37          2.4399   5.8741  -1.3010 H              1 <1>                0.0000
     38 H38          0.9919   6.1496  -2.2990 H              1 <1>                0.0000
     39 H39          0.8238   5.8285  -0.5563 H              1 <1>                0.0000
     40 H40          2.1187   3.6192  -1.7474 H              1 <1>                0.0000
     41 H41          0.8286   1.6948  -2.8396 H              1 <1>                0.0000
     42 H42         -0.8758   1.6923  -0.2068 H              1 <1>                0.0000
     43 H43         -1.4841   0.6901  -3.1156 H              1 <1>                0.0000
     44 H44         -2.5134   3.0034  -4.3239 H              1 <1>                0.0000
     45 H45         -4.4422   4.5186  -4.1170 H              1 <1>                0.0000
     46 H46         -4.7517   3.5457   0.0331 H              1 <1>                0.0000
     47 H47         -2.8255   2.0285  -0.1834 H              1 <1>                0.0000
     48 H48          0.8974   0.1881   0.8035 H              1 <1>                0.0000
     49 H49          0.6305  -2.5543  -0.1637 H              1 <1>                0.0000
     50 H50          3.1294  -2.8564  -0.2676 H              1 <1>                0.0000
     51 H51          2.0463  -0.7409  -2.1804 H              1 <1>                0.0000
     52 H52          3.3721  -1.8849  -2.4993 H              1 <1>                0.0000
     53 H53          1.7068  -2.4836  -2.3072 H              1 <1>                0.0000
     54 H54          3.7321  -0.8782   1.1006 H              1 <1>                0.0000
     55 H55          4.5255  -0.8194  -0.4917 H              1 <1>                0.0000
     56 H56          3.0979   0.1942  -0.1707 H              1 <1>                0.0000
     57 H57          2.0253  -4.0550   1.4566 H              1 <1>                0.0000
     58 H58          1.2018  -3.1168   4.0966 H              1 <1>                0.0000
     59 H59          2.4108  -5.7476   3.1342 H              1 <1>                0.0000
     60 H60          1.8779  -5.4312   4.8028 H              1 <1>                0.0000
     61 H61         -1.0461  -7.0171   3.2202 H              1 <1>                0.0000
     62 H62          0.4618  -7.4890   3.7915 H              1 <1>                0.0000
     63 H63          4.5318  -3.2844   5.6623 H              1 <1>                0.0000
     64 H64          2.9959  -3.9027   5.9476 H              1 <1>                0.0000
@<TRIPOS>BOND
    1    1    2 1     
    2    1   37 1     
    3    1   38 1     
    4    1   39 1     
    5    2    3 am    
    6    2   40 1     
    7    3    4 2     
    8    3    5 1     
    9    5    7 1     
   10    5    6 1     
   11    5   41 1     
   12    6    7 1     
   13    6   19 1     
   14    6   42 1     
   15    7    8 1     
   16    7   43 1     
   17    8   18 ar    
   18    8    9 ar    
   19    9   10 ar    
   20    9   44 1     
   21   10   11 ar    
   22   10   45 1     
   23   11   12 1     
   24   11   17 ar    
   25   12   13 1     
   26   13   14 ar    
   27   13   15 ar    
   28   13   16 ar    
   29   17   18 ar    
   30   17   46 1     
   31   18   47 1     
   32   19   20 2     
   33   19   21 am    
   34   21   22 1     
   35   21   48 1     
   36   22   23 1     
   37   22   26 1     
   38   22   49 1     
   39   23   24 1     
   40   23   25 1     
   41   23   50 1     
   42   24   51 1     
   43   24   52 1     
   44   24   53 1     
   45   25   54 1     
   46   25   55 1     
   47   25   56 1     
   48   26   27 2     
   49   26   28 am    
   50   28   29 1     
   51   28   57 1     
   52   29   30 1     
   53   29   34 1     
   54   29   58 1     
   55   30   31 1     
   56   30   59 1     
   57   30   60 1     
   58   31   32 am    
   59   31   33 2     
   60   32   61 1     
   61   32   62 1     
   62   34   35 am    
   63   34   36 2     
   64   35   63 1     
   65   35   64 1     
@<TRIPOS>SUBSTRUCTURE
      1 ****           1
@<TRIPOS>SET
DONOR_HYDROGENS      STATIC     ATOMS    <user>   **** ""
7 40 48 57 61 62 63 64
ATOM$RED        STATIC     ATOMS    COLORGROUP SYSTEM
7 40 48 57 61 62 63 64
