#       Name:                ZB6
#       Creating user name   gbret
#       Creation time:       Fri Sep  9 19:13:04 2016


#       File generated by GOLD software.
#

@<TRIPOS>MOLECULE
ZB6
    31    31     1
SMALL
NO_CHARGES


@<TRIPOS>ATOM
      1 C1           0.1996   1.7677  -1.7161 C.3            1 <1>                0.0000
      2 C2          -0.5610   0.6753  -0.9618 C.3            1 <1>                0.0000
      3 C3          -1.1344  -0.3345  -1.9610 C.3            1 <1>                0.0000
      4 C4           0.0154  -1.0583  -2.6654 C.3            1 <1>                0.0000
      5 C5           0.8492  -1.8206  -1.6330 C.3            1 <1>                0.0000
      6 C6           1.4451  -0.8276  -0.6301 C.3            1 <1>                0.0000
      7 N7           0.3564  -0.0266  -0.0539 N.am           1 <1>                0.0000
      8 C8           0.2024   0.0626   1.2820 C.2            1 <1>                0.0000
      9 O9           1.0205  -0.4416   2.0218 O.2            1 <1>                0.0000
     10 C10         -0.9866   0.7888   1.8566 C.3            1 <1>                0.0000
     11 C11         -0.8764   0.8205   3.3822 C.3            1 <1>                0.0000
     12 S12         -2.3075   1.6947   4.0738 S.3            1 <1>                0.0000
     13 C13          2.1532  -1.5807   0.4665 C.2            1 <1>                0.0000
     14 O14          3.3415  -1.3937   0.6654 O.co2          1 <1>                0.0000
     15 O15          1.5378  -2.3769   1.1548 O.co2          1 <1>                0.0000
     16 H16          1.0061   1.3161  -2.2938 H              1 <1>                0.0000
     17 H17         -0.4827   2.2871  -2.3889 H              1 <1>                0.0000
     18 H18          0.6174   2.4781  -1.0027 H              1 <1>                0.0000
     19 H19         -1.3712   1.1243  -0.3873 H              1 <1>                0.0000
     20 H20         -1.7511  -1.0605  -1.4311 H              1 <1>                0.0000
     21 H21         -1.7415   0.1890  -2.6995 H              1 <1>                0.0000
     22 H22         -0.3897  -1.7600  -3.3945 H              1 <1>                0.0000
     23 H23          0.6457  -0.3293  -3.1745 H              1 <1>                0.0000
     24 H24          0.2139  -2.5326  -1.1062 H              1 <1>                0.0000
     25 H25          1.6540  -2.3547  -2.1380 H              1 <1>                0.0000
     26 H26          2.1506  -0.1719  -1.1404 H              1 <1>                0.0000
     27 H27         -1.0097   1.8087   1.4726 H              1 <1>                0.0000
     28 H28         -1.9020   0.2715   1.5691 H              1 <1>                0.0000
     29 H29         -0.8532  -0.1993   3.7662 H              1 <1>                0.0000
     30 H30          0.0390   1.3378   3.6697 H              1 <1>                0.0000
     31 H31         -2.0805   1.6460   5.3986 H              1 <1>                0.0000
@<TRIPOS>BOND
    1    1    2 1     
    2    1   16 1     
    3    1   17 1     
    4    1   18 1     
    5    2    7 1     
    6    2    3 1     
    7    2   19 1     
    8    3    4 1     
    9    3   20 1     
   10    3   21 1     
   11    4    5 1     
   12    4   22 1     
   13    4   23 1     
   14    5    6 1     
   15    5   24 1     
   16    5   25 1     
   17    6    7 1     
   18    6   13 1     
   19    6   26 1     
   20    7    8 am    
   21    8    9 2     
   22    8   10 1     
   23   10   11 1     
   24   10   27 1     
   25   10   28 1     
   26   11   12 1     
   27   11   29 1     
   28   11   30 1     
   29   12   31 1     
   30   13   14 ar    
   31   13   15 ar    
@<TRIPOS>SUBSTRUCTURE
      1 ****           1
