#       Name:                ZCL
#       Creating user name   gbret
#       Creation time:       Fri Sep  9 19:13:49 2016


#       File generated by GOLD software.
#

@<TRIPOS>MOLECULE
ZCL
    23    23     1
SMALL
NO_CHARGES


@<TRIPOS>ATOM
      1 N1           0.1858   1.1963  -1.7989 N.4            1 <1>                0.0000
      2 H2           0.1995   0.1874  -1.8045 H              1 <1>                0.0000
      3 H3           1.1324   1.5456  -1.8061 H              1 <1>                0.0000
      4 H4          -0.3022   1.5306  -2.6164 H              1 <1>                0.0000
      5 C5          -0.5018   1.6701  -0.5903 C.3            1 <1>                0.0000
      6 C6           0.2382   1.1632   0.6492 C.3            1 <1>                0.0000
      7 C7           0.1528  -0.3403   0.7054 C.ar           1 <1>                0.0000
      8 C8          -0.9004  -0.9484   1.3631 C.ar           1 <1>                0.0000
      9 C9          -0.9799  -2.3272   1.4154 C.ar           1 <1>                0.0000
     10 C10         -0.0054  -3.0997   0.8091 C.ar           1 <1>                0.0000
     11 Cl11        -0.1051  -4.8316   0.8740 Cl             1 <1>                0.0000
     12 C12          1.0489  -2.4908   0.1502 C.ar           1 <1>                0.0000
     13 Cl13         2.2722  -3.4588  -0.6117 Cl             1 <1>                0.0000
     14 C14          1.1243  -1.1105   0.0947 C.ar           1 <1>                0.0000
     15 C15         -0.5222   3.1769  -0.5820 C.2            1 <1>                0.0000
     16 O16         -1.2014   3.7729   0.2366 O.co2          1 <1>                0.0000
     17 O17          0.1404   3.8000  -1.3939 O.co2          1 <1>                0.0000
     18 H18         -1.5244   1.2928  -0.5826 H              1 <1>                0.0000
     19 H19          1.2840   1.4661   0.5972 H              1 <1>                0.0000
     20 H20         -0.2187   1.5868   1.5436 H              1 <1>                0.0000
     21 H21         -1.6613  -0.3457   1.8366 H              1 <1>                0.0000
     22 H22         -1.8025  -2.8016   1.9299 H              1 <1>                0.0000
     23 H23          1.9464  -0.6348  -0.4195 H              1 <1>                0.0000
@<TRIPOS>BOND
    1    1    2 1     
    2    1    3 1     
    3    1    4 1     
    4    1    5 1     
    5    5    6 1     
    6    5   15 1     
    7    5   18 1     
    8    6    7 1     
    9    6   19 1     
   10    6   20 1     
   11    7   14 ar    
   12    7    8 ar    
   13    8    9 ar    
   14    8   21 1     
   15    9   10 ar    
   16    9   22 1     
   17   10   11 1     
   18   10   12 ar    
   19   12   13 1     
   20   12   14 ar    
   21   14   23 1     
   22   15   16 ar    
   23   15   17 ar    
@<TRIPOS>SUBSTRUCTURE
      1 ****           1
@<TRIPOS>SET
DONOR_HYDROGENS      STATIC     ATOMS    <user>   **** ""
3 2 3 4
ATOM$RED        STATIC     ATOMS    COLORGROUP SYSTEM
3 2 3 4
