#       Name:                ZEX
#       Creating user name   gbret
#       Creation time:       Fri Sep  9 19:15:14 2016


#       File generated by GOLD software.
#

@<TRIPOS>MOLECULE
ZEX
    98    99     1
SMALL
NO_CHARGES


@<TRIPOS>ATOM
      1 C1          -7.6700   4.1605   9.5829 C.3            1 <1>                0.0000
      2 C2          -8.3879   4.9244   8.4685 C.3            1 <1>                0.0000
      3 C3          -7.9391   4.3990   7.1360 C.2            1 <1>                0.0000
      4 C4          -8.6623   3.5827   6.3877 C.2            1 <1>                0.0000
      5 C5          -8.1192   3.1512   5.1515 C.2            1 <1>                0.0000
      6 C6          -6.8285   2.7300   5.0863 C.2            1 <1>                0.0000
      7 C7          -6.2583   2.4018   3.8441 C.2            1 <1>                0.0000
      8 C8          -7.0779   2.5168   2.5848 C.3            1 <1>                0.0000
      9 C9          -4.9619   1.9787   3.7786 C.2            1 <1>                0.0000
     10 C10         -4.3934   1.6515   2.5402 C.2            1 <1>                0.0000
     11 C11         -3.0855   1.2247   2.4741 C.2            1 <1>                0.0000
     12 C12         -2.5177   0.8978   1.2374 C.2            1 <1>                0.0000
     13 C13         -3.3374   1.0128  -0.0220 C.3            1 <1>                0.0000
     14 C14         -1.2087   0.4707   1.1712 C.2            1 <1>                0.0000
     15 C15         -0.6412   0.1440  -0.0649 C.2            1 <1>                0.0000
     16 C16          0.6682  -0.2833  -0.1311 C.2            1 <1>                0.0000
     17 C17          1.2357  -0.6099  -1.3672 C.2            1 <1>                0.0000
     18 C18          2.5447  -1.0371  -1.4333 C.2            1 <1>                0.0000
     19 C19          3.3644  -1.1521  -0.1740 C.3            1 <1>                0.0000
     20 C20          3.1125  -1.3639  -2.6701 C.2            1 <1>                0.0000
     21 C21          4.4204  -1.7907  -2.7362 C.2            1 <1>                0.0000
     22 C22          4.9889  -2.1180  -3.9746 C.2            1 <1>                0.0000
     23 C23          6.2853  -2.5410  -4.0401 C.2            1 <1>                0.0000
     24 C24          7.1050  -2.6560  -2.7808 C.3            1 <1>                0.0000
     25 C25          6.8555  -2.8693  -5.2822 C.2            1 <1>                0.0000
     26 C26          8.1462  -3.2904  -5.3475 C.2            1 <1>                0.0000
     27 C27          8.7536  -3.5210  -6.6073 C.2            1 <1>                0.0000
     28 C28          8.1803  -4.3857  -7.4276 C.2            1 <1>                0.0000
     29 C29          6.9235  -5.0775  -6.9663 C.3            1 <1>                0.0000
     30 C30          8.7106  -4.7164  -8.7924 C.3            1 <1>                0.0000
     31 C31         10.1687  -4.2689  -8.9134 C.3            1 <1>                0.0000
     32 O32         10.5883  -4.3634 -10.2761 O.3            1 <1>                0.0000
     33 C33         10.2725  -2.8133  -8.4422 C.3            1 <1>                0.0000
     34 C34         10.0080  -2.7656  -6.9376 C.3            1 <1>                0.0000
     35 C35          9.8616  -1.3086  -6.4943 C.3            1 <1>                0.0000
     36 C36         11.1843  -3.4030  -6.1954 C.3            1 <1>                0.0000
     37 C37        -10.0255   3.0871   6.7739 C.3            1 <1>                0.0000
     38 C38        -11.0871   3.8559   5.9848 C.3            1 <1>                0.0000
     39 C39        -10.1336   1.5957   6.4498 C.3            1 <1>                0.0000
     40 C40        -10.2568   3.2959   8.2719 C.3            1 <1>                0.0000
     41 C41         -9.8996   4.7452   8.6232 C.3            1 <1>                0.0000
     42 O42        -10.2800   5.0197   9.9730 O.3            1 <1>                0.0000
     43 H43         -7.9200   3.1016   9.5169 H              1 <1>                0.0000
     44 H44         -6.5928   4.2869   9.4744 H              1 <1>                0.0000
     45 H45         -7.9857   4.5487  10.5513 H              1 <1>                0.0000
     46 H46         -8.1405   5.9836   8.5391 H              1 <1>                0.0000
     47 H47         -6.9709   4.7046   6.7676 H              1 <1>                0.0000
     48 H48         -8.7309   3.1570   4.2615 H              1 <1>                0.0000
     49 H49         -6.2411   2.6476   5.9888 H              1 <1>                0.0000
     50 H50         -6.9640   3.5171   2.1672 H              1 <1>                0.0000
     51 H51         -6.7350   1.7790   1.8594 H              1 <1>                0.0000
     52 H52         -8.1277   2.3374   2.8169 H              1 <1>                0.0000
     53 H53         -4.3745   1.8963   4.6811 H              1 <1>                0.0000
     54 H54         -4.9808   1.7339   1.6377 H              1 <1>                0.0000
     55 H55         -2.4981   1.1423   3.3766 H              1 <1>                0.0000
     56 H56         -3.2234   2.0132  -0.4396 H              1 <1>                0.0000
     57 H57         -2.9945   0.2751  -0.7474 H              1 <1>                0.0000
     58 H58         -4.3872   0.8335   0.2101 H              1 <1>                0.0000
     59 H59         -0.6213   0.3883   2.0737 H              1 <1>                0.0000
     60 H60         -1.2286   0.2264  -0.9674 H              1 <1>                0.0000
     61 H61          1.2556  -0.3657   0.7714 H              1 <1>                0.0000
     62 H62          0.6483  -0.5275  -2.2697 H              1 <1>                0.0000
     63 H63          3.2504  -2.1524   0.2436 H              1 <1>                0.0000
     64 H64          4.4142  -0.9727  -0.4061 H              1 <1>                0.0000
     65 H65          3.0215  -0.4143   0.5514 H              1 <1>                0.0000
     66 H66          2.5251  -1.2815  -3.5726 H              1 <1>                0.0000
     67 H67          5.0078  -1.8731  -1.8337 H              1 <1>                0.0000
     68 H68          4.4015  -2.0356  -4.8771 H              1 <1>                0.0000
     69 H69          6.9910  -3.6564  -2.3631 H              1 <1>                0.0000
     70 H70          8.1547  -2.4766  -3.0129 H              1 <1>                0.0000
     71 H71          6.7620  -1.9182  -2.0554 H              1 <1>                0.0000
     72 H72          6.2681  -2.7868  -6.1848 H              1 <1>                0.0000
     73 H73          8.7089  -3.4494  -4.4395 H              1 <1>                0.0000
     74 H74          6.0534  -4.5275  -7.3248 H              1 <1>                0.0000
     75 H75          6.9007  -6.0924  -7.3634 H              1 <1>                0.0000
     76 H76          6.9072  -5.1131  -5.8770 H              1 <1>                0.0000
     77 H77          8.6484  -5.7927  -8.9532 H              1 <1>                0.0000
     78 H78          8.1119  -4.2052  -9.5463 H              1 <1>                0.0000
     79 H79         10.7994  -4.9040  -8.2913 H              1 <1>                0.0000
     80 H80         10.5339  -5.2562 -10.6434 H              1 <1>                0.0000
     81 H81         11.2715  -2.4310  -8.6517 H              1 <1>                0.0000
     82 H82          9.5294  -2.2069  -8.9600 H              1 <1>                0.0000
     83 H83          8.9750  -0.8753  -6.9571 H              1 <1>                0.0000
     84 H84          9.7623  -1.2671  -5.4096 H              1 <1>                0.0000
     85 H85         10.7433  -0.7454  -6.8002 H              1 <1>                0.0000
     86 H86         12.0978  -2.8535  -6.4223 H              1 <1>                0.0000
     87 H87         10.9975  -3.3700  -5.1220 H              1 <1>                0.0000
     88 H88         11.2955  -4.4398  -6.5131 H              1 <1>                0.0000
     89 H89        -10.9312   3.6987   4.9175 H              1 <1>                0.0000
     90 H90        -12.0779   3.4973   6.2639 H              1 <1>                0.0000
     91 H91        -11.0086   4.9193   6.2107 H              1 <1>                0.0000
     92 H92         -9.4336   1.0372   7.0713 H              1 <1>                0.0000
     93 H93        -11.1491   1.2533   6.6487 H              1 <1>                0.0000
     94 H94         -9.8950   1.4341   5.3986 H              1 <1>                0.0000
     95 H95        -11.3038   3.1086   8.5103 H              1 <1>                0.0000
     96 H96         -9.6218   2.6150   8.8388 H              1 <1>                0.0000
     97 H97        -10.4198   5.4245   7.9479 H              1 <1>                0.0000
     98 H98        -10.0823   5.9212  10.2618 H              1 <1>                0.0000
@<TRIPOS>BOND
    1    1    2 1     
    2    1   43 1     
    3    1   44 1     
    4    1   45 1     
    5    2   41 1     
    6    2    3 1     
    7    2   46 1     
    8    3    4 2     
    9    3   47 1     
   10    4    5 1     
   11    4   37 1     
   12    5    6 2     
   13    5   48 1     
   14    6    7 1     
   15    6   49 1     
   16    7    8 1     
   17    7    9 2     
   18    8   50 1     
   19    8   51 1     
   20    8   52 1     
   21    9   10 1     
   22    9   53 1     
   23   10   11 2     
   24   10   54 1     
   25   11   12 1     
   26   11   55 1     
   27   12   13 1     
   28   12   14 2     
   29   13   56 1     
   30   13   57 1     
   31   13   58 1     
   32   14   15 1     
   33   14   59 1     
   34   15   16 2     
   35   15   60 1     
   36   16   17 1     
   37   16   61 1     
   38   17   18 2     
   39   17   62 1     
   40   18   19 1     
   41   18   20 1     
   42   19   63 1     
   43   19   64 1     
   44   19   65 1     
   45   20   21 2     
   46   20   66 1     
   47   21   22 1     
   48   21   67 1     
   49   22   23 2     
   50   22   68 1     
   51   23   24 1     
   52   23   25 1     
   53   24   69 1     
   54   24   70 1     
   55   24   71 1     
   56   25   26 2     
   57   25   72 1     
   58   26   27 1     
   59   26   73 1     
   60   27   34 1     
   61   27   28 2     
   62   28   29 1     
   63   28   30 1     
   64   29   74 1     
   65   29   75 1     
   66   29   76 1     
   67   30   31 1     
   68   30   77 1     
   69   30   78 1     
   70   31   32 1     
   71   31   33 1     
   72   31   79 1     
   73   32   80 1     
   74   33   34 1     
   75   33   81 1     
   76   33   82 1     
   77   34   35 1     
   78   34   36 1     
   79   35   83 1     
   80   35   84 1     
   81   35   85 1     
   82   36   86 1     
   83   36   87 1     
   84   36   88 1     
   85   37   38 1     
   86   37   39 1     
   87   37   40 1     
   88   38   89 1     
   89   38   90 1     
   90   38   91 1     
   91   39   92 1     
   92   39   93 1     
   93   39   94 1     
   94   40   41 1     
   95   40   95 1     
   96   40   96 1     
   97   41   42 1     
   98   41   97 1     
   99   42   98 1     
@<TRIPOS>SUBSTRUCTURE
      1 ****           1
@<TRIPOS>SET
DONOR_HYDROGENS      STATIC     ATOMS    <user>   **** ""
2 80 98
ATOM$RED        STATIC     ATOMS    COLORGROUP SYSTEM
2 80 98
