#       Name:                ZOF
#       Creating user name   gbret
#       Creation time:       Fri Sep  9 19:19:06 2016


#       File generated by GOLD software.
#

@<TRIPOS>MOLECULE
ZOF
    52    53     1
SMALL
NO_CHARGES


@<TRIPOS>ATOM
      1 O1          10.1378  -0.6294  -0.4006 O.co2          1 <1>                0.0000
      2 C2          10.1212   0.5897  -0.3939 C.2            1 <1>                0.0000
      3 O3          11.1687   1.2136  -0.4005 O.co2          1 <1>                0.0000
      4 C4           8.8061   1.3254  -0.3836 C.3            1 <1>                0.0000
      5 C5           7.6567   0.3155  -0.3837 C.3            1 <1>                0.0000
      6 C6           6.3215   1.0624  -0.3733 C.3            1 <1>                0.0000
      7 C7           5.1722   0.0524  -0.3733 C.3            1 <1>                0.0000
      8 C8           3.8369   0.7993  -0.3629 C.3            1 <1>                0.0000
      9 N9           2.7364  -0.1677  -0.3630 N.am           1 <1>                0.0000
     10 C10          1.4598   0.2642  -0.3546 C.2            1 <1>                0.0000
     11 O11          1.2220   1.4535  -0.3470 O.2            1 <1>                0.0000
     12 C12          0.3277  -0.7305  -0.3546 C.3            1 <1>                0.0000
     13 C13         -1.0075   0.0164  -0.3442 C.3            1 <1>                0.0000
     14 C14         -2.1568  -0.9935  -0.3443 C.3            1 <1>                0.0000
     15 C15         -3.4921  -0.2466  -0.3339 C.3            1 <1>                0.0000
     16 C16         -4.6414  -1.2566  -0.3339 C.3            1 <1>                0.0000
     17 S17         -4.7676  -2.1009   1.2952 S.3            1 <1>                0.0000
     18 C18         -6.5681  -2.4470   1.1503 C.3            1 <1>                0.0000
     19 C19         -7.0904  -1.2115   0.3905 C.3            1 <1>                0.0000
     20 N20         -7.5033  -0.1852   1.3587 N.pl3          1 <1>                0.0000
     21 C21         -6.7711   0.9500   1.1411 C.cat          1 <1>                0.0000
     22 N22         -6.9062   2.0413   1.8410 N.pl3          1 <1>                0.0000
     23 H23         -7.5544   2.0782   2.5617 H              1 <1>                0.0000
     24 H24         -6.3584   2.8165   1.6412 H              1 <1>                0.0000
     25 N25         -5.8820   0.8165   0.1097 N.pl3          1 <1>                0.0000
     26 C26         -6.0004  -0.5381  -0.4492 C.3            1 <1>                0.0000
     27 H27          8.7440   1.9464   0.5100 H              1 <1>                0.0000
     28 H28          8.7356   1.9560  -1.2699 H              1 <1>                0.0000
     29 H29          7.7188  -0.3055  -1.2774 H              1 <1>                0.0000
     30 H30          7.7272  -0.3152   0.5026 H              1 <1>                0.0000
     31 H31          6.2595   1.6833   0.5204 H              1 <1>                0.0000
     32 H32          6.2510   1.6930  -1.2595 H              1 <1>                0.0000
     33 H33          5.2342  -0.5685  -1.2670 H              1 <1>                0.0000
     34 H34          5.2426  -0.5782   0.5129 H              1 <1>                0.0000
     35 H35          3.7749   1.4203   0.5307 H              1 <1>                0.0000
     36 H36          3.7665   1.4300  -1.2492 H              1 <1>                0.0000
     37 H37          2.9266  -1.1188  -0.3690 H              1 <1>                0.0000
     38 H38          0.3898  -1.3515  -1.2483 H              1 <1>                0.0000
     39 H39          0.3982  -1.3612   0.5316 H              1 <1>                0.0000
     40 H40         -1.0695   0.6374   0.5495 H              1 <1>                0.0000
     41 H41         -1.0780   0.6470  -1.2305 H              1 <1>                0.0000
     42 H42         -2.0948  -1.6145  -1.2379 H              1 <1>                0.0000
     43 H43         -2.0864  -1.6242   0.5420 H              1 <1>                0.0000
     44 H44         -3.5541   0.3743   0.5598 H              1 <1>                0.0000
     45 H45         -3.5626   0.3840  -1.2201 H              1 <1>                0.0000
     46 H46         -4.5176  -1.9807  -1.1392 H              1 <1>                0.0000
     47 H47         -6.7419  -3.3564   0.5750 H              1 <1>                0.0000
     48 H48         -7.0286  -2.5178   2.1357 H              1 <1>                0.0000
     49 H49         -7.9338  -1.4888  -0.2419 H              1 <1>                0.0000
     50 H50         -8.1841  -0.2950   2.0409 H              1 <1>                0.0000
     51 H51         -5.2727   1.5038  -0.2020 H              1 <1>                0.0000
     52 H52         -6.3106  -0.4874  -1.4929 H              1 <1>                0.0000
@<TRIPOS>BOND
    1    1    2 ar    
    2    2    3 ar    
    3    2    4 1     
    4    4    5 1     
    5    4   27 1     
    6    4   28 1     
    7    5    6 1     
    8    5   29 1     
    9    5   30 1     
   10    6    7 1     
   11    6   31 1     
   12    6   32 1     
   13    7    8 1     
   14    7   33 1     
   15    7   34 1     
   16    8    9 1     
   17    8   35 1     
   18    8   36 1     
   19    9   10 am    
   20    9   37 1     
   21   10   11 2     
   22   10   12 1     
   23   12   13 1     
   24   12   38 1     
   25   12   39 1     
   26   13   14 1     
   27   13   40 1     
   28   13   41 1     
   29   14   15 1     
   30   14   42 1     
   31   14   43 1     
   32   15   16 1     
   33   15   44 1     
   34   15   45 1     
   35   16   26 1     
   36   16   17 1     
   37   16   46 1     
   38   17   18 1     
   39   18   19 1     
   40   18   47 1     
   41   18   48 1     
   42   19   26 1     
   43   19   20 1     
   44   19   49 1     
   45   20   21 ar    
   46   20   50 1     
   47   21   22 ar    
   48   21   25 ar    
   49   22   23 1     
   50   22   24 1     
   51   25   26 1     
   52   25   51 1     
   53   26   52 1     
@<TRIPOS>SUBSTRUCTURE
      1 ****           1
@<TRIPOS>SET
DONOR_HYDROGENS      STATIC     ATOMS    <user>   **** ""
5 37 50 23 24 51
ATOM$RED        STATIC     ATOMS    COLORGROUP SYSTEM
5 37 50 23 24 51
