#       Name:                ZTW
#       Creating user name   gbret
#       Creation time:       Fri Sep  9 19:22:06 2016


#       File generated by GOLD software.
#

@<TRIPOS>MOLECULE
ZTW
    27    29     1
SMALL
NO_CHARGES


@<TRIPOS>ATOM
      1 O1          -0.0780   5.9024  -0.1997 O.3            1 <1>                0.0000
      2 C2          -0.0595   4.5437  -0.2072 C.ar           1 <1>                0.0000
      3 C3          -0.0559   3.8579  -1.4146 C.ar           1 <1>                0.0000
      4 C4          -0.0377   2.4795  -1.4264 C.ar           1 <1>                0.0000
      5 C5          -0.0224   1.7732  -0.2224 C.ar           1 <1>                0.0000
      6 C6          -0.0256   2.4664   0.9892 C.ar           1 <1>                0.0000
      7 C7          -0.0386   3.8449   0.9925 C.ar           1 <1>                0.0000
      8 C8          -0.0033   0.2949  -0.2306 C.2            1 <1>                0.0000
      9 C9           0.0068  -0.4630   0.8646 C.2            1 <1>                0.0000
     10 C10          0.0246  -1.8925   0.6123 C.ar           1 <1>                0.0000
     11 C11          0.0389  -2.9615   1.5365 C.ar           1 <1>                0.0000
     12 C12          0.0554  -4.2503   1.1022 C.ar           1 <1>                0.0000
     13 C13          0.0583  -4.5376  -0.2609 C.ar           1 <1>                0.0000
     14 O14          0.0748  -5.8300  -0.6820 O.3            1 <1>                0.0000
     15 C15          0.0441  -3.5125  -1.1840 C.ar           1 <1>                0.0000
     16 C16          0.0276  -2.1816  -0.7560 C.ar           1 <1>                0.0000
     17 S17          0.0013  -0.6867  -1.6827 S.3            1 <1>                0.0000
     18 H18          0.8000   6.3077  -0.2059 H              1 <1>                0.0000
     19 H19         -0.0677   4.4051  -2.3456 H              1 <1>                0.0000
     20 H20         -0.0356   1.9468  -2.3658 H              1 <1>                0.0000
     21 H21         -0.0142   1.9235   1.9228 H              1 <1>                0.0000
     22 H22         -0.0408   4.3819   1.9295 H              1 <1>                0.0000
     23 H23          0.0024  -0.0471   1.8613 H              1 <1>                0.0000
     24 H24          0.0372  -2.7534   2.5963 H              1 <1>                0.0000
     25 H25          0.0666  -5.0573   1.8198 H              1 <1>                0.0000
     26 H26         -0.8037  -6.2154  -0.8034 H              1 <1>                0.0000
     27 H27          0.0461  -3.7386  -2.2400 H              1 <1>                0.0000
@<TRIPOS>BOND
    1    1    2 1     
    2    1   18 1     
    3    2    7 ar    
    4    2    3 ar    
    5    3    4 ar    
    6    3   19 1     
    7    4    5 ar    
    8    4   20 1     
    9    5    6 ar    
   10    5    8 1     
   11    6    7 ar    
   12    6   21 1     
   13    7   22 1     
   14    8   17 1     
   15    8    9 2     
   16    9   10 1     
   17    9   23 1     
   18   10   16 ar    
   19   10   11 ar    
   20   11   12 ar    
   21   11   24 1     
   22   12   13 ar    
   23   12   25 1     
   24   13   14 1     
   25   13   15 ar    
   26   14   26 1     
   27   15   16 ar    
   28   15   27 1     
   29   16   17 1     
@<TRIPOS>SUBSTRUCTURE
      1 ****           1
@<TRIPOS>SET
DONOR_HYDROGENS      STATIC     ATOMS    <user>   **** ""
2 18 26
ATOM$RED        STATIC     ATOMS    COLORGROUP SYSTEM
2 18 26
