#       Name:                ZZT
#       Creating user name   gbret
#       Creation time:       Fri Sep  9 19:28:43 2016


#       File generated by GOLD software.
#

@<TRIPOS>MOLECULE
ZZT
    21    21     1
SMALL
NO_CHARGES


@<TRIPOS>ATOM
      1 C1           2.0950   2.5363  -0.0067 C.3            1 <1>                0.0000
      2 O2           2.1144   1.1074  -0.0146 O.3            1 <1>                0.0000
      3 C3           0.9110   0.4735  -0.0065 C.ar           1 <1>                0.0000
      4 C4          -0.2617   1.2104   0.0029 C.ar           1 <1>                0.0000
      5 C5          -1.4844   0.5646   0.0117 C.ar           1 <1>                0.0000
      6 C6          -1.5409  -0.8168   0.0105 C.ar           1 <1>                0.0000
      7 C7          -2.8766  -1.5146   0.0196 C.3            1 <1>                0.0000
      8 C8          -0.3752  -1.5595   0.0007 C.ar           1 <1>                0.0000
      9 C9           0.8551  -0.9185  -0.0134 C.ar           1 <1>                0.0000
     10 N10          2.0369  -1.6682  -0.0239 N.pl3          1 <1>                0.0000
     11 H11          3.1176   2.9136  -0.0145 H              1 <1>                0.0000
     12 H12          1.5678   2.8974  -0.8898 H              1 <1>                0.0000
     13 H13          1.5848   2.8878   0.8901 H              1 <1>                0.0000
     14 H14         -0.2212   2.2896   0.0038 H              1 <1>                0.0000
     15 H15         -2.3978   1.1408   0.0197 H              1 <1>                0.0000
     16 H16         -3.2062  -1.6817  -1.0059 H              1 <1>                0.0000
     17 H17         -2.7828  -2.4722   0.5317 H              1 <1>                0.0000
     18 H18         -3.6069  -0.8945   0.5395 H              1 <1>                0.0000
     19 H19         -0.4221  -2.6385   0.0002 H              1 <1>                0.0000
     20 H20          2.8965  -1.2187  -0.0264 H              1 <1>                0.0000
     21 H21          1.9965  -2.6374  -0.0288 H              1 <1>                0.0000
@<TRIPOS>BOND
    1    1    2 1     
    2    1   11 1     
    3    1   12 1     
    4    1   13 1     
    5    2    3 1     
    6    3    9 ar    
    7    3    4 ar    
    8    4    5 ar    
    9    4   14 1     
   10    5    6 ar    
   11    5   15 1     
   12    6    7 1     
   13    6    8 ar    
   14    7   16 1     
   15    7   17 1     
   16    7   18 1     
   17    8    9 ar    
   18    8   19 1     
   19    9   10 1     
   20   10   20 1     
   21   10   21 1     
@<TRIPOS>SUBSTRUCTURE
      1 ****           1
@<TRIPOS>SET
DONOR_HYDROGENS      STATIC     ATOMS    <user>   **** ""
2 20 21
ATOM$RED        STATIC     ATOMS    COLORGROUP SYSTEM
2 20 21
