#       Name:                01E
#       Creating user name   gbret
#       Creation time:       Thu Sep  8 18:25:34 2016


#       File generated by GOLD software.
#

@<TRIPOS>MOLECULE
01E
    87    88     1
SMALL
NO_CHARGES


@<TRIPOS>ATOM
      1 C1           1.1207   3.7609   3.0271 C.3            1 <1>                0.0000
      2 C2           0.7787   2.3243   3.4272 C.3            1 <1>                0.0000
      3 N3           1.4847   1.3908   2.5461 N.am           1 <1>                0.0000
      4 C4           0.9488   1.0501   1.3572 C.2            1 <1>                0.0000
      5 O5          -0.1178   1.5164   1.0169 O.2            1 <1>                0.0000
      6 C6           1.6750   0.0899   0.4508 C.3            1 <1>                0.0000
      7 C7           1.8610  -1.2480   1.1694 C.3            1 <1>                0.0000
      8 C8           0.5172  -1.7805   1.5956 C.2            1 <1>                0.0000
      9 O9          -0.4932  -1.2105   1.2578 O.2            1 <1>                0.0000
     10 N10          0.4424  -2.8924   2.3535 N.am           1 <1>                0.0000
     11 C11          1.5083  -3.6258   2.8067 C.2            1 <1>                0.0000
     12 C12          1.0313  -4.6573   3.5279 C.2            1 <1>                0.0000
     13 C13         -0.3777  -4.5647   3.5247 C.2            1 <1>                0.0000
     14 C14         -0.7121  -3.4770   2.8059 C.2            1 <1>                0.0000
     15 N15          0.8919  -0.1163  -0.7700 N.am           1 <1>                0.0000
     16 C16          1.5094  -0.4675  -1.9154 C.2            1 <1>                0.0000
     17 O17          2.7184  -0.5563  -1.9499 O.2            1 <1>                0.0000
     18 C18          0.6975  -0.7497  -3.1532 C.3            1 <1>                0.0000
     19 N19          1.5938  -0.8919  -4.3033 N.am           1 <1>                0.0000
     20 C20          1.1376  -0.6469  -5.5476 C.2            1 <1>                0.0000
     21 O21         -0.0150  -0.3088  -5.7152 O.2            1 <1>                0.0000
     22 C22          2.0596  -0.7932  -6.7306 C.3            1 <1>                0.0000
     23 C23          1.2982  -0.4591  -8.0150 C.3            1 <1>                0.0000
     24 C24          0.7846   0.9803  -7.9436 C.3            1 <1>                0.0000
     25 C25          2.2343  -0.6077  -9.2160 C.3            1 <1>                0.0000
     26 C26          0.1144  -1.4160  -8.1696 C.3            1 <1>                0.0000
     27 C27         -0.0936  -2.0450  -2.9599 C.3            1 <1>                0.0000
     28 C28         -0.9135  -1.9544  -1.6713 C.3            1 <1>                0.0000
     29 C29         -1.0338  -2.2507  -4.1492 C.3            1 <1>                0.0000
     30 C30          0.8755  -3.2252  -2.8659 C.3            1 <1>                0.0000
     31 C31          1.2082   2.0823   4.8756 C.3            1 <1>                0.0000
     32 O32          2.5939   2.3998   5.0209 O.3            1 <1>                0.0000
     33 C33          0.3936   2.9565   5.7939 C.2            1 <1>                0.0000
     34 O34          0.9346   3.8322   6.4353 O.2            1 <1>                0.0000
     35 N35         -0.9361   2.7653   5.9022 N.am           1 <1>                0.0000
     36 C36         -1.7280   3.6152   6.7949 C.3            1 <1>                0.0000
     37 C37         -3.1748   3.1980   6.7331 C.ar           1 <1>                0.0000
     38 C38         -4.0209   3.7735   5.8036 C.ar           1 <1>                0.0000
     39 C39         -5.3478   3.3907   5.7464 C.ar           1 <1>                0.0000
     40 C40         -5.8289   2.4318   6.6191 C.ar           1 <1>                0.0000
     41 I41         -7.8399   1.8508   6.5322 I              1 <1>                0.0000
     42 C42         -4.9823   1.8562   7.5488 C.ar           1 <1>                0.0000
     43 C43         -3.6542   2.2356   7.6020 C.ar           1 <1>                0.0000
     44 H44          2.1955   3.9174   3.1183 H              1 <1>                0.0000
     45 H45          0.8147   3.9333   1.9952 H              1 <1>                0.0000
     46 H46          0.5954   4.4555   3.6827 H              1 <1>                0.0000
     47 H47         -0.2961   2.1678   3.3360 H              1 <1>                0.0000
     48 H48          2.3377   1.0178   2.8183 H              1 <1>                0.0000
     49 H49          2.6503   0.5018   0.1917 H              1 <1>                0.0000
     50 H50          2.3365  -1.9599   0.4946 H              1 <1>                0.0000
     51 H51          2.4901  -1.1043   2.0478 H              1 <1>                0.0000
     52 H52          2.5501  -3.4130   2.6176 H              1 <1>                0.0000
     53 H53          1.6196  -5.4180   4.0195 H              1 <1>                0.0000
     54 H54         -1.0626  -5.2418   4.0134 H              1 <1>                0.0000
     55 H55         -1.7162  -3.1287   2.6138 H              1 <1>                0.0000
     56 H56         -0.0710   0.0000  -0.7541 H              1 <1>                0.0000
     57 H57          0.0069   0.0747  -3.3306 H              1 <1>                0.0000
     58 H58          2.5156  -1.1624  -4.1692 H              1 <1>                0.0000
     59 H59          2.9030  -0.1115  -6.6204 H              1 <1>                0.0000
     60 H60          2.4255  -1.8187  -6.7814 H              1 <1>                0.0000
     61 H61          1.6280   1.6620  -7.8334 H              1 <1>                0.0000
     62 H62          0.2422   1.2183  -8.8586 H              1 <1>                0.0000
     63 H63          0.1177   1.0861  -7.0879 H              1 <1>                0.0000
     64 H64          2.6003  -1.6331  -9.2669 H              1 <1>                0.0000
     65 H65          1.6919  -0.3697 -10.1310 H              1 <1>                0.0000
     66 H66          3.0777   0.0740  -9.1058 H              1 <1>                0.0000
     67 H67         -0.5525  -1.3102  -7.3140 H              1 <1>                0.0000
     68 H68         -0.4280  -1.1780  -9.0846 H              1 <1>                0.0000
     69 H69          0.4804  -2.4415  -8.2205 H              1 <1>                0.0000
     70 H70         -1.6648  -1.1713  -1.7731 H              1 <1>                0.0000
     71 H71         -1.4062  -2.9089  -1.4863 H              1 <1>                0.0000
     72 H72         -0.2535  -1.7184  -0.8366 H              1 <1>                0.0000
     73 H73         -0.4497  -2.3152  -5.0673 H              1 <1>                0.0000
     74 H74         -1.5974  -3.1735  -4.0115 H              1 <1>                0.0000
     75 H75         -1.7242  -1.4099  -4.2162 H              1 <1>                0.0000
     76 H76          1.5454  -3.0787  -2.0186 H              1 <1>                0.0000
     77 H77          0.3120  -4.1480  -2.7281 H              1 <1>                0.0000
     78 H78          1.4597  -3.2898  -3.7839 H              1 <1>                0.0000
     79 H79          1.0464   1.0354   5.1325 H              1 <1>                0.0000
     80 H80          2.8115   3.3177   4.8083 H              1 <1>                0.0000
     81 H81         -1.3688   2.0650   5.3892 H              1 <1>                0.0000
     82 H82         -1.3626   3.5091   7.8163 H              1 <1>                0.0000
     83 H83         -1.6362   4.6554   6.4824 H              1 <1>                0.0000
     84 H84         -3.6451   4.5226   5.1224 H              1 <1>                0.0000
     85 H85         -6.0088   3.8407   5.0205 H              1 <1>                0.0000
     86 H86         -5.3578   1.1076   8.2306 H              1 <1>                0.0000
     87 H87         -2.9929   1.7861   8.3281 H              1 <1>                0.0000
@<TRIPOS>BOND
    1    1    2 1     
    2    1   44 1     
    3    1   45 1     
    4    1   46 1     
    5    2    3 1     
    6    2   31 1     
    7    2   47 1     
    8    3    4 am    
    9    3   48 1     
   10    4    5 2     
   11    4    6 1     
   12    6    7 1     
   13    6   15 1     
   14    6   49 1     
   15    7    8 1     
   16    7   50 1     
   17    7   51 1     
   18    8    9 2     
   19    8   10 am    
   20   10   14 1     
   21   10   11 1     
   22   11   12 2     
   23   11   52 1     
   24   12   13 1     
   25   12   53 1     
   26   13   14 2     
   27   13   54 1     
   28   14   55 1     
   29   15   16 am    
   30   15   56 1     
   31   16   17 2     
   32   16   18 1     
   33   18   19 1     
   34   18   27 1     
   35   18   57 1     
   36   19   20 am    
   37   19   58 1     
   38   20   21 2     
   39   20   22 1     
   40   22   23 1     
   41   22   59 1     
   42   22   60 1     
   43   23   24 1     
   44   23   25 1     
   45   23   26 1     
   46   24   61 1     
   47   24   62 1     
   48   24   63 1     
   49   25   64 1     
   50   25   65 1     
   51   25   66 1     
   52   26   67 1     
   53   26   68 1     
   54   26   69 1     
   55   27   28 1     
   56   27   29 1     
   57   27   30 1     
   58   28   70 1     
   59   28   71 1     
   60   28   72 1     
   61   29   73 1     
   62   29   74 1     
   63   29   75 1     
   64   30   76 1     
   65   30   77 1     
   66   30   78 1     
   67   31   32 1     
   68   31   33 1     
   69   31   79 1     
   70   32   80 1     
   71   33   34 2     
   72   33   35 am    
   73   35   36 1     
   74   35   81 1     
   75   36   37 1     
   76   36   82 1     
   77   36   83 1     
   78   37   43 ar    
   79   37   38 ar    
   80   38   39 ar    
   81   38   84 1     
   82   39   40 ar    
   83   39   85 1     
   84   40   41 1     
   85   40   42 ar    
   86   42   43 ar    
   87   42   86 1     
   88   43   87 1     
@<TRIPOS>SUBSTRUCTURE
      1 ****           1
@<TRIPOS>SET
DONOR_HYDROGENS      STATIC     ATOMS    <user>   **** ""
5 48 56 58 80 81
ATOM$RED        STATIC     ATOMS    COLORGROUP SYSTEM
5 48 56 58 80 81
