#       Name:                023
#       Creating user name   gbret
#       Creation time:       Thu Sep  8 18:27:09 2016


#       File generated by GOLD software.
#

@<TRIPOS>MOLECULE
023
    61    61     1
SMALL
NO_CHARGES


@<TRIPOS>ATOM
      1 C1          -3.6133   5.8200  -0.6413 C.3            1 <1>                0.0000
      2 N2          -3.1222   4.6061  -1.2982 N.am           1 <1>                0.0000
      3 C3          -2.6657   3.5767  -0.5577 C.2            1 <1>                0.0000
      4 O4          -2.5760   3.6890   0.6466 O.2            1 <1>                0.0000
      5 C5          -2.2666   2.2863  -1.2260 C.3            1 <1>                0.0000
      6 N6          -1.3940   1.5224  -0.3309 N.am           1 <1>                0.0000
      7 C7          -0.5235   0.6281  -0.8399 C.2            1 <1>                0.0000
      8 O8          -0.4989   0.4178  -2.0341 O.2            1 <1>                0.0000
      9 C9           0.4193  -0.1105   0.0748 C.3            1 <1>                0.0000
     10 C10          1.1676  -1.1817  -0.7211 C.3            1 <1>                0.0000
     11 C11          2.0114  -2.0295   0.2329 C.3            1 <1>                0.0000
     12 C12          2.6428  -3.1899  -0.5389 C.3            1 <1>                0.0000
     13 C13          3.4739  -4.0250   0.4007 C.ar           1 <1>                0.0000
     14 C14          4.8091  -3.7245   0.5953 C.ar           1 <1>                0.0000
     15 C15          5.5715  -4.4905   1.4572 C.ar           1 <1>                0.0000
     16 C16          4.9986  -5.5567   2.1249 C.ar           1 <1>                0.0000
     17 C17          3.6631  -5.8566   1.9311 C.ar           1 <1>                0.0000
     18 C18          2.8997  -5.0880   1.0725 C.ar           1 <1>                0.0000
     19 C19          1.4246   0.8748   0.6744 C.3            1 <1>                0.0000
     20 C20          0.6727   2.0326   1.3339 C.3            1 <1>                0.0000
     21 N21          2.2418   0.1884   1.6781 N.am           1 <1>                0.0000
     22 O22          3.6526   0.1811   1.5578 O.3            1 <1>                0.0000
     23 C23          1.6507  -0.4359   2.7160 C.2            1 <1>                0.0000
     24 O24          2.3281  -0.9253   3.5949 O.2            1 <1>                0.0000
     25 C25         -3.5193   1.4658  -1.5397 C.3            1 <1>                0.0000
     26 C26         -4.3874   2.2248  -2.5453 C.3            1 <1>                0.0000
     27 C27         -3.1097   0.1173  -2.1352 C.3            1 <1>                0.0000
     28 C28         -4.3134   1.2349  -0.2525 C.3            1 <1>                0.0000
     29 H29         -2.8137   6.2591  -0.0447 H              1 <1>                0.0000
     30 H30         -3.9382   6.5357  -1.3965 H              1 <1>                0.0000
     31 H31         -4.4534   5.5684   0.0060 H              1 <1>                0.0000
     32 H32         -3.1257   4.5432  -2.2662 H              1 <1>                0.0000
     33 H33         -1.7348   2.5060  -2.1517 H              1 <1>                0.0000
     34 H34         -1.4426   1.6602   0.6280 H              1 <1>                0.0000
     35 H35         -0.1482  -0.5835   0.8763 H              1 <1>                0.0000
     36 H36          0.4493  -1.8199  -1.2357 H              1 <1>                0.0000
     37 H37          1.8177  -0.7026  -1.4531 H              1 <1>                0.0000
     38 H38          2.7973  -1.4126   0.6687 H              1 <1>                0.0000
     39 H39          1.3768  -2.4237   1.0266 H              1 <1>                0.0000
     40 H40          1.8568  -3.8068  -0.9747 H              1 <1>                0.0000
     41 H41          3.2774  -2.7957  -1.3326 H              1 <1>                0.0000
     42 H42          5.2567  -2.8915   0.0735 H              1 <1>                0.0000
     43 H43          6.6148  -4.2562   1.6086 H              1 <1>                0.0000
     44 H44          5.5944  -6.1555   2.7978 H              1 <1>                0.0000
     45 H45          3.2156  -6.6898   2.4526 H              1 <1>                0.0000
     46 H46          1.8563  -5.3223   0.9210 H              1 <1>                0.0000
     47 H47          2.0685   1.2624  -0.1151 H              1 <1>                0.0000
     48 H48          1.3891   2.7385   1.7542 H              1 <1>                0.0000
     49 H49          0.0587   2.5384   0.5887 H              1 <1>                0.0000
     50 H50          0.0347   1.6459   2.1285 H              1 <1>                0.0000
     51 H51          4.1053  -0.2962   2.2666 H              1 <1>                0.0000
     52 H52          0.5737  -0.5005   2.7650 H              1 <1>                0.0000
     53 H53         -3.7895   2.4835  -3.4192 H              1 <1>                0.0000
     54 H54         -5.2239   1.5961  -2.8506 H              1 <1>                0.0000
     55 H55         -4.7675   3.1356  -2.0826 H              1 <1>                0.0000
     56 H56         -2.4912  -0.4234  -1.4188 H              1 <1>                0.0000
     57 H57         -4.0022  -0.4673  -2.3588 H              1 <1>                0.0000
     58 H58         -2.5440   0.2818  -3.0523 H              1 <1>                0.0000
     59 H59         -4.6051   2.1956   0.1717 H              1 <1>                0.0000
     60 H60         -5.2058   0.6503  -0.4760 H              1 <1>                0.0000
     61 H61         -3.6949   0.6942   0.4639 H              1 <1>                0.0000
@<TRIPOS>BOND
    1    1    2 1     
    2    1   29 1     
    3    1   30 1     
    4    1   31 1     
    5    2    3 am    
    6    2   32 1     
    7    3    4 2     
    8    3    5 1     
    9    5    6 1     
   10    5   25 1     
   11    5   33 1     
   12    6    7 am    
   13    6   34 1     
   14    7    8 2     
   15    7    9 1     
   16    9   10 1     
   17    9   19 1     
   18    9   35 1     
   19   10   11 1     
   20   10   36 1     
   21   10   37 1     
   22   11   12 1     
   23   11   38 1     
   24   11   39 1     
   25   12   13 1     
   26   12   40 1     
   27   12   41 1     
   28   13   18 ar    
   29   13   14 ar    
   30   14   15 ar    
   31   14   42 1     
   32   15   16 ar    
   33   15   43 1     
   34   16   17 ar    
   35   16   44 1     
   36   17   18 ar    
   37   17   45 1     
   38   18   46 1     
   39   19   20 1     
   40   19   21 1     
   41   19   47 1     
   42   20   48 1     
   43   20   49 1     
   44   20   50 1     
   45   21   22 1     
   46   21   23 am    
   47   22   51 1     
   48   23   24 2     
   49   23   52 1     
   50   25   26 1     
   51   25   27 1     
   52   25   28 1     
   53   26   53 1     
   54   26   54 1     
   55   26   55 1     
   56   27   56 1     
   57   27   57 1     
   58   27   58 1     
   59   28   59 1     
   60   28   60 1     
   61   28   61 1     
@<TRIPOS>SUBSTRUCTURE
      1 ****           1
@<TRIPOS>SET
DONOR_HYDROGENS      STATIC     ATOMS    <user>   **** ""
3 32 34 51
ATOM$RED        STATIC     ATOMS    COLORGROUP SYSTEM
3 32 34 51
