#       Name:                02X
#       Creating user name   gbret
#       Creation time:       Thu Sep  8 18:29:01 2016


#       File generated by GOLD software.
#

@<TRIPOS>MOLECULE
02X
    21    20     1
SMALL
NO_CHARGES


@<TRIPOS>ATOM
      1 C1          -0.6296   1.7241   0.8589 C.3            1 <1>                0.0000
      2 C2          -0.6088   0.1942   0.8505 C.3            1 <1>                0.0000
      3 C3          -2.0442  -0.3353   0.8614 C.3            1 <1>                0.0000
      4 C4           0.1073  -0.2992  -0.4083 C.3            1 <1>                0.0000
      5 C5           1.5427   0.2304  -0.4191 C.3            1 <1>                0.0000
      6 C6           2.2095  -0.1522  -1.7153 C.2            1 <1>                0.0000
      7 O7           1.5937  -0.7893  -2.5528 O.co2          1 <1>                0.0000
      8 O8           3.3647   0.1755  -1.9265 O.co2          1 <1>                0.0000
      9 C9           0.1278  -1.8060  -0.4166 C.2            1 <1>                0.0000
     10 O10         -0.4006  -2.4178  -1.3293 O.co2          1 <1>                0.0000
     11 O11          0.6726  -2.4133   0.4894 O.co2          1 <1>                0.0000
     12 H12          0.3930   2.1014   0.8512 H              1 <1>                0.0000
     13 H13         -1.1568   2.0851  -0.0241 H              1 <1>                0.0000
     14 H14         -1.1398   2.0756   1.7557 H              1 <1>                0.0000
     15 H15         -0.0816  -0.1668   1.7336 H              1 <1>                0.0000
     16 H16         -2.5714   0.0257  -0.0217 H              1 <1>                0.0000
     17 H17         -2.0294  -1.4252   0.8554 H              1 <1>                0.0000
     18 H18         -2.5544   0.0162   1.7582 H              1 <1>                0.0000
     19 H19         -0.4199   0.0619  -1.2913 H              1 <1>                0.0000
     20 H20          1.5301   1.3161  -0.3236 H              1 <1>                0.0000
     21 H21          2.0956  -0.2014   0.4151 H              1 <1>                0.0000
@<TRIPOS>BOND
    1    1    2 1     
    2    1   12 1     
    3    1   13 1     
    4    1   14 1     
    5    2    3 1     
    6    2    4 1     
    7    2   15 1     
    8    3   16 1     
    9    3   17 1     
   10    3   18 1     
   11    4    5 1     
   12    4    9 1     
   13    4   19 1     
   14    5    6 1     
   15    5   20 1     
   16    5   21 1     
   17    6    7 ar    
   18    6    8 ar    
   19    9   10 ar    
   20    9   11 ar    
@<TRIPOS>SUBSTRUCTURE
      1 ****           1
