#       Name:                03L
#       Creating user name   gbret
#       Creation time:       Thu Sep  8 18:30:47 2016


#       File generated by GOLD software.
#

@<TRIPOS>MOLECULE
03L
    42    44     1
SMALL
NO_CHARGES


@<TRIPOS>ATOM
      1 O1           1.7330  -5.2042  -2.9127 O.co2          1 <1>                0.0000
      2 C2           0.9926  -5.0576  -1.9508 C.2            1 <1>                0.0000
      3 O3           1.3619  -5.4010  -0.8370 O.co2          1 <1>                0.0000
      4 C4          -0.3456  -4.4600  -2.1334 C.ar           1 <1>                0.0000
      5 C5          -1.4403  -5.2695  -2.4293 C.ar           1 <1>                0.0000
      6 C6          -2.6906  -4.7052  -2.5993 C.ar           1 <1>                0.0000
      7 C7          -2.8642  -3.3380  -2.4779 C.ar           1 <1>                0.0000
      8 C8          -1.7891  -2.5191  -2.1847 C.ar           1 <1>                0.0000
      9 C9          -0.5241  -3.0695  -2.0039 C.ar           1 <1>                0.0000
     10 C10          0.6295  -2.1969  -1.6899 C.2            1 <1>                0.0000
     11 O11          1.7486  -2.6670  -1.6309 O.2            1 <1>                0.0000
     12 N12          0.4388  -0.8811  -1.4695 N.am           1 <1>                0.0000
     13 C13          1.5806  -0.0174  -1.1587 C.3            1 <1>                0.0000
     14 C14          1.1006   1.3969  -0.9579 C.ar           1 <1>                0.0000
     15 C15          1.0277   2.2623  -2.0331 C.ar           1 <1>                0.0000
     16 Cl16         1.4899   1.7196  -3.6160 Cl             1 <1>                0.0000
     17 C17          0.5861   3.5610  -1.8490 C.ar           1 <1>                0.0000
     18 C18          0.2169   3.9971  -0.5894 C.ar           1 <1>                0.0000
     19 C19          0.2878   3.1379   0.4890 C.ar           1 <1>                0.0000
     20 C20          0.7254   1.8311   0.3074 C.ar           1 <1>                0.0000
     21 S21          0.8166   0.7316   1.6812 S.3            1 <1>                0.0000
     22 C22          0.4273   1.7725   3.0485 C.ar           1 <1>                0.0000
     23 C23         -0.8296   1.7081   3.6368 C.ar           1 <1>                0.0000
     24 C24         -1.1320   2.5251   4.7083 C.ar           1 <1>                0.0000
     25 C25         -0.1847   3.4083   5.1964 C.ar           1 <1>                0.0000
     26 Cl26        -0.5693   4.4339   6.5432 Cl             1 <1>                0.0000
     27 C27          1.0686   3.4751   4.6135 C.ar           1 <1>                0.0000
     28 C28          1.3793   2.6561   3.5446 C.ar           1 <1>                0.0000
     29 Cl29         2.9516   2.7401   2.8135 Cl             1 <1>                0.0000
     30 H30         -1.3119  -6.3374  -2.5262 H              1 <1>                0.0000
     31 H31         -3.5372  -5.3355  -2.8286 H              1 <1>                0.0000
     32 H32         -3.8453  -2.9076  -2.6134 H              1 <1>                0.0000
     33 H33         -1.9323  -1.4527  -2.0919 H              1 <1>                0.0000
     34 H34         -0.4545  -0.5059  -1.5166 H              1 <1>                0.0000
     35 H35          2.0652  -0.3695  -0.2480 H              1 <1>                0.0000
     36 H36          2.2927  -0.0458  -1.9835 H              1 <1>                0.0000
     37 H37          0.5299   4.2354  -2.6906 H              1 <1>                0.0000
     38 H38         -0.1269   5.0112  -0.4492 H              1 <1>                0.0000
     39 H39         -0.0007   3.4796   1.4721 H              1 <1>                0.0000
     40 H40         -1.5698   1.0198   3.2562 H              1 <1>                0.0000
     41 H41         -2.1091   2.4751   5.1657 H              1 <1>                0.0000
     42 H42          1.8059   4.1650   4.9968 H              1 <1>                0.0000
@<TRIPOS>BOND
    1    1    2 ar    
    2    2    3 ar    
    3    2    4 1     
    4    4    9 ar    
    5    4    5 ar    
    6    5    6 ar    
    7    5   30 1     
    8    6    7 ar    
    9    6   31 1     
   10    7    8 ar    
   11    7   32 1     
   12    8    9 ar    
   13    8   33 1     
   14    9   10 1     
   15   10   11 2     
   16   10   12 am    
   17   12   13 1     
   18   12   34 1     
   19   13   14 1     
   20   13   35 1     
   21   13   36 1     
   22   14   20 ar    
   23   14   15 ar    
   24   15   16 1     
   25   15   17 ar    
   26   17   18 ar    
   27   17   37 1     
   28   18   19 ar    
   29   18   38 1     
   30   19   20 ar    
   31   19   39 1     
   32   20   21 1     
   33   21   22 1     
   34   22   28 ar    
   35   22   23 ar    
   36   23   24 ar    
   37   23   40 1     
   38   24   25 ar    
   39   24   41 1     
   40   25   26 1     
   41   25   27 ar    
   42   27   28 ar    
   43   27   42 1     
   44   28   29 1     
@<TRIPOS>SUBSTRUCTURE
      1 ****           1
@<TRIPOS>SET
DONOR_HYDROGENS      STATIC     ATOMS    <user>   **** ""
1 34
ATOM$RED        STATIC     ATOMS    COLORGROUP SYSTEM
1 34
