#       Name:                04Z
#       Creating user name   gbret
#       Creation time:       Thu Sep  8 18:33:54 2016


#       File generated by GOLD software.
#

@<TRIPOS>MOLECULE
04Z
    43    45     1
SMALL
NO_CHARGES


@<TRIPOS>ATOM
      1 C1           1.4098   6.7840   1.0476 C.3            1 <1>                0.0000
      2 O2           1.2669   5.3627   1.0108 O.3            1 <1>                0.0000
      3 C3           2.1942   4.6675   0.3008 C.ar           1 <1>                0.0000
      4 C4           3.2240   5.3412  -0.3425 C.ar           1 <1>                0.0000
      5 C5           4.1698   4.6391  -1.0660 C.ar           1 <1>                0.0000
      6 C6           4.0963   3.2637  -1.1540 C.ar           1 <1>                0.0000
      7 C7           3.0650   2.5783  -0.5109 C.ar           1 <1>                0.0000
      8 C8           2.1148   3.2874   0.2238 C.ar           1 <1>                0.0000
      9 C9           2.9829   1.1032  -0.6036 C.2            1 <1>                0.0000
     10 O10          3.9928   0.4471  -0.7940 O.2            1 <1>                0.0000
     11 C11          1.7392   0.4582  -0.4718 C.2            1 <1>                0.0000
     12 S12          0.1663   1.2447  -0.3659 S.3            1 <1>                0.0000
     13 C13         -0.6041  -0.2752  -0.2419 C.2            1 <1>                0.0000
     14 N14         -1.9639  -0.4545  -0.1181 N.pl3          1 <1>                0.0000
     15 C15         -2.4822  -1.7317   0.1146 C.ar           1 <1>                0.0000
     16 C16         -3.7691  -2.0473  -0.3024 C.ar           1 <1>                0.0000
     17 C17         -4.2781  -3.3101  -0.0708 C.ar           1 <1>                0.0000
     18 C18         -3.5084  -4.2597   0.5758 C.ar           1 <1>                0.0000
     19 C19         -2.2269  -3.9488   0.9923 C.ar           1 <1>                0.0000
     20 C20         -1.7095  -2.6899   0.7584 C.ar           1 <1>                0.0000
     21 S21         -4.1621  -5.8692   0.8703 S.o2           1 <1>                0.0000
     22 N22         -3.7739  -6.8034  -0.4408 N.pl3          1 <1>                0.0000
     23 O23         -3.4377  -6.4014   1.9708 O.2            1 <1>                0.0000
     24 O24         -5.5768  -5.7352   0.8627 O.2            1 <1>                0.0000
     25 N25          0.2682  -1.2412  -0.2805 N.2            1 <1>                0.0000
     26 C26          1.5310  -0.9078  -0.4082 C.2            1 <1>                0.0000
     27 N27          2.5588  -1.8352  -0.4625 N.pl3          1 <1>                0.0000
     28 H28          0.6069   7.2146   1.6460 H              1 <1>                0.0000
     29 H29          2.3717   7.0411   1.4913 H              1 <1>                0.0000
     30 H30          1.3599   7.1806   0.0335 H              1 <1>                0.0000
     31 H31          3.2860   6.4175  -0.2776 H              1 <1>                0.0000
     32 H32          4.9686   5.1685  -1.5642 H              1 <1>                0.0000
     33 H33          4.8364   2.7183  -1.7206 H              1 <1>                0.0000
     34 H34          1.3144   2.7622   0.7237 H              1 <1>                0.0000
     35 H35         -2.5621   0.3055  -0.1925 H              1 <1>                0.0000
     36 H36         -4.3710  -1.3060  -0.8068 H              1 <1>                0.0000
     37 H37         -5.2786  -3.5561  -0.3948 H              1 <1>                0.0000
     38 H38         -1.6283  -4.6927   1.4970 H              1 <1>                0.0000
     39 H39         -0.7086  -2.4477   1.0839 H              1 <1>                0.0000
     40 H40         -3.6362  -7.7575  -0.3328 H              1 <1>                0.0000
     41 H41         -3.6842  -6.3965  -1.3168 H              1 <1>                0.0000
     42 H42          3.4776  -1.5365  -0.5492 H              1 <1>                0.0000
     43 H43          2.3597  -2.7833  -0.4138 H              1 <1>                0.0000
@<TRIPOS>BOND
    1    1    2 1     
    2    1   28 1     
    3    1   29 1     
    4    1   30 1     
    5    2    3 1     
    6    3    8 ar    
    7    3    4 ar    
    8    4    5 ar    
    9    4   31 1     
   10    5    6 ar    
   11    5   32 1     
   12    6    7 ar    
   13    6   33 1     
   14    7    8 ar    
   15    7    9 1     
   16    8   34 1     
   17    9   10 2     
   18    9   11 1     
   19   11   26 2     
   20   11   12 1     
   21   12   13 1     
   22   13   14 1     
   23   13   25 2     
   24   14   15 1     
   25   14   35 1     
   26   15   20 ar    
   27   15   16 ar    
   28   16   17 ar    
   29   16   36 1     
   30   17   18 ar    
   31   17   37 1     
   32   18   19 ar    
   33   18   21 1     
   34   19   20 ar    
   35   19   38 1     
   36   20   39 1     
   37   21   22 1     
   38   21   23 2     
   39   21   24 2     
   40   22   40 1     
   41   22   41 1     
   42   25   26 1     
   43   26   27 1     
   44   27   42 1     
   45   27   43 1     
@<TRIPOS>SUBSTRUCTURE
      1 ****           1
@<TRIPOS>SET
DONOR_HYDROGENS      STATIC     ATOMS    <user>   **** ""
5 35 40 41 42 43
ATOM$RED        STATIC     ATOMS    COLORGROUP SYSTEM
5 35 40 41 42 43
