#       Name:                06X
#       Creating user name   gbret
#       Creation time:       Thu Sep  8 18:36:26 2016


#       File generated by GOLD software.
#

@<TRIPOS>MOLECULE
06X
    54    55     1
SMALL
NO_CHARGES


@<TRIPOS>ATOM
      1 C1          -3.6653   1.1595   2.8759 C.3            1 <1>                0.0000
      2 C2          -2.1654   1.4180   3.0317 C.3            1 <1>                0.0000
      3 O3          -1.4695   0.8770   1.9069 O.3            1 <1>                0.0000
      4 C4          -0.1278   1.0215   1.8891 C.2            1 <1>                0.0000
      5 O5           0.4349   1.5919   2.8050 O.2            1 <1>                0.0000
      6 C6           0.6241   0.5100   0.8062 C.2            1 <1>                0.0000
      7 C7           0.9038  -0.8041   0.7624 C.2            1 <1>                0.0000
      8 C8           0.4056  -1.7081   1.8604 C.3            1 <1>                0.0000
      9 O9          -0.5467  -2.6287   1.3241 O.3            1 <1>                0.0000
     10 C10         -1.0842  -3.5364   2.2881 C.3            1 <1>                0.0000
     11 C11         -2.0868  -4.4696   1.6064 C.3            1 <1>                0.0000
     12 N12         -1.3852  -5.3118   0.6284 N.4            1 <1>                0.0000
     13 H13         -0.9452  -4.7262  -0.0655 H              1 <1>                0.0000
     14 H14         -0.6820  -5.8605   1.1002 H              1 <1>                0.0000
     15 H15         -2.0464  -5.9272   0.1788 H              1 <1>                0.0000
     16 N16          1.6348  -1.3310  -0.2672 N.pl3          1 <1>                0.0000
     17 C17          2.3918  -0.5161  -1.0640 C.2            1 <1>                0.0000
     18 C18          3.4824  -1.1125  -1.9160 C.3            1 <1>                0.0000
     19 C19          2.1743   0.8101  -1.0965 C.2            1 <1>                0.0000
     20 C20          1.0879   1.4460  -0.2736 C.3            1 <1>                0.0000
     21 C21         -0.0716   1.7979  -1.1696 C.ar           1 <1>                0.0000
     22 C22         -0.7261   0.8055  -1.8751 C.ar           1 <1>                0.0000
     23 C23         -1.7896   1.1281  -2.6970 C.ar           1 <1>                0.0000
     24 C24         -2.1995   2.4434  -2.8139 C.ar           1 <1>                0.0000
     25 C25         -1.5460   3.4364  -2.1091 C.ar           1 <1>                0.0000
     26 C26         -0.4849   3.1133  -1.2818 C.ar           1 <1>                0.0000
     27 Cl27         0.3366   4.3600  -0.3961 Cl             1 <1>                0.0000
     28 C28          2.9813   1.6233  -1.9255 C.2            1 <1>                0.0000
     29 O29          3.8613   1.1211  -2.5994 O.2            1 <1>                0.0000
     30 O30          2.7755   2.9563  -1.9692 O.3            1 <1>                0.0000
     31 C31          3.6277   3.7165  -2.8282 C.3            1 <1>                0.0000
     32 H32         -4.0234   1.6363   1.9634 H              1 <1>                0.0000
     33 H33         -3.8450   0.0859   2.8195 H              1 <1>                0.0000
     34 H34         -4.1962   1.5722   3.7338 H              1 <1>                0.0000
     35 H35         -1.9857   2.4916   3.0881 H              1 <1>                0.0000
     36 H36         -1.8074   0.9413   3.9441 H              1 <1>                0.0000
     37 H37          1.2443  -2.2594   2.2856 H              1 <1>                0.0000
     38 H38         -0.0669  -1.1084   2.6384 H              1 <1>                0.0000
     39 H39         -0.2765  -4.1256   2.7222 H              1 <1>                0.0000
     40 H40         -1.5876  -2.9747   3.0750 H              1 <1>                0.0000
     41 H41         -2.5621  -5.1023   2.3560 H              1 <1>                0.0000
     42 H42         -2.8464  -3.8769   1.0967 H              1 <1>                0.0000
     43 H43          1.6166  -2.2866  -0.4327 H              1 <1>                0.0000
     44 H44          3.5139  -2.1913  -1.7631 H              1 <1>                0.0000
     45 H45          3.2805  -0.9001  -2.9658 H              1 <1>                0.0000
     46 H46          4.4416  -0.6776  -1.6352 H              1 <1>                0.0000
     47 H47          1.4728   2.3554   0.1878 H              1 <1>                0.0000
     48 H48         -0.4062  -0.2220  -1.7845 H              1 <1>                0.0000
     49 H49         -2.3004   0.3525  -3.2482 H              1 <1>                0.0000
     50 H50         -3.0303   2.6949  -3.4564 H              1 <1>                0.0000
     51 H51         -1.8660   4.4638  -2.2007 H              1 <1>                0.0000
     52 H52          4.6644   3.5903  -2.5160 H              1 <1>                0.0000
     53 H53          3.5125   3.3686  -3.8548 H              1 <1>                0.0000
     54 H54          3.3562   4.7705  -2.7692 H              1 <1>                0.0000
@<TRIPOS>BOND
    1    1    2 1     
    2    1   32 1     
    3    1   33 1     
    4    1   34 1     
    5    2    3 1     
    6    2   35 1     
    7    2   36 1     
    8    3    4 1     
    9    4    5 2     
   10    4    6 1     
   11    6   20 1     
   12    6    7 2     
   13    7    8 1     
   14    7   16 1     
   15    8    9 1     
   16    8   37 1     
   17    8   38 1     
   18    9   10 1     
   19   10   11 1     
   20   10   39 1     
   21   10   40 1     
   22   11   12 1     
   23   11   41 1     
   24   11   42 1     
   25   12   13 1     
   26   12   14 1     
   27   12   15 1     
   28   16   17 1     
   29   16   43 1     
   30   17   18 1     
   31   17   19 2     
   32   18   44 1     
   33   18   45 1     
   34   18   46 1     
   35   19   20 1     
   36   19   28 1     
   37   20   21 1     
   38   20   47 1     
   39   21   26 ar    
   40   21   22 ar    
   41   22   23 ar    
   42   22   48 1     
   43   23   24 ar    
   44   23   49 1     
   45   24   25 ar    
   46   24   50 1     
   47   25   26 ar    
   48   25   51 1     
   49   26   27 1     
   50   28   29 2     
   51   28   30 1     
   52   30   31 1     
   53   31   52 1     
   54   31   53 1     
   55   31   54 1     
@<TRIPOS>SUBSTRUCTURE
      1 ****           1
@<TRIPOS>SET
DONOR_HYDROGENS      STATIC     ATOMS    <user>   **** ""
4 13 14 15 43
ATOM$RED        STATIC     ATOMS    COLORGROUP SYSTEM
4 13 14 15 43
