#       Name:                0AD
#       Creating user name   gbret
#       Creation time:       Thu Sep  8 18:43:11 2016


#       File generated by GOLD software.
#

@<TRIPOS>MOLECULE
0AD
    44    46     1
SMALL
NO_CHARGES


@<TRIPOS>ATOM
      1 C1          -2.8432   2.2926   4.8124 C.3            1 <1>                0.0000
      2 C2          -2.8224   0.7627   4.8040 C.3            1 <1>                0.0000
      3 C3          -2.1063   0.2693   3.5452 C.3            1 <1>                0.0000
      4 N4          -2.0864  -1.1955   3.5372 N.pl3          1 <1>                0.0000
      5 C5          -1.4928  -1.8680   2.4986 C.2            1 <1>                0.0000
      6 N6          -0.9431  -1.1791   1.5236 N.2            1 <1>                0.0000
      7 C7          -0.3527  -1.7921   0.4910 C.2            1 <1>                0.0000
      8 N8           0.2863  -1.3571  -0.6384 N.pl3          1 <1>                0.0000
      9 C9           0.6878  -2.4610  -1.3333 C.2            1 <1>                0.0000
     10 N10          0.3318  -3.5374  -0.6951 N.2            1 <1>                0.0000
     11 C11         -0.3169  -3.1904   0.4431 C.2            1 <1>                0.0000
     12 C12         -0.9124  -3.9194   1.4990 C.2            1 <1>                0.0000
     13 O13         -0.9046  -5.1386   1.4985 O.2            1 <1>                0.0000
     14 N14         -1.4855  -3.2309   2.5109 N.am           1 <1>                0.0000
     15 H15         -1.9001  -3.7091   3.2459 H              1 <1>                0.0000
     16 C16          0.4998   0.0383  -1.0300 C.3            1 <1>                0.0000
     17 C17          1.8147   0.5728  -0.4203 C.3            1 <1>                0.0000
     18 C18          2.3952   1.4870  -1.5224 C.3            1 <1>                0.0000
     19 O19          3.6675   1.0023  -1.9562 O.3            1 <1>                0.0000
     20 C20          1.3623   1.3966  -2.6676 C.3            1 <1>                0.0000
     21 C21          2.0695   1.4040  -4.0244 C.3            1 <1>                0.0000
     22 O22          1.0951   1.4373  -5.0692 O.3            1 <1>                0.0000
     23 P23          1.4846   1.4535  -6.6312 P.3            1 <1>                0.0000
     24 O24          2.1922   0.1072  -7.0070 O.co2          1 <1>                0.0000
     25 O25          0.1858   1.6188  -7.4916 O.co2          1 <1>                0.0000
     26 O26          2.4549   2.6503  -6.9151 O.co2          1 <1>                0.0000
     27 O27          0.6888   0.1363  -2.4585 O.3            1 <1>                0.0000
     28 H28         -1.8206   2.6699   4.8047 H              1 <1>                0.0000
     29 H29         -3.3704   2.6536   3.9294 H              1 <1>                0.0000
     30 H30         -3.3534   2.6441   5.7092 H              1 <1>                0.0000
     31 H31         -2.2952   0.4017   5.6871 H              1 <1>                0.0000
     32 H32         -3.8450   0.3854   4.8118 H              1 <1>                0.0000
     33 H33         -2.6335   0.6304   2.6622 H              1 <1>                0.0000
     34 H34         -1.0837   0.6466   3.5375 H              1 <1>                0.0000
     35 H35         -2.4929  -1.6901   4.2659 H              1 <1>                0.0000
     36 H36          1.2207  -2.4436  -2.2725 H              1 <1>                0.0000
     37 H37         -0.3436   0.6531  -0.7158 H              1 <1>                0.0000
     38 H38          1.6109   1.1466   0.4838 H              1 <1>                0.0000
     39 H39          2.4982  -0.2488  -0.2064 H              1 <1>                0.0000
     40 H40          2.4807   2.5123  -1.1624 H              1 <1>                0.0000
     41 H41          4.3383   0.9803  -1.2600 H              1 <1>                0.0000
     42 H42          0.6536   2.2224  -2.6054 H              1 <1>                0.0000
     43 H43          2.7092   2.2836  -4.0960 H              1 <1>                0.0000
     44 H44          2.6767   0.5041  -4.1225 H              1 <1>                0.0000
@<TRIPOS>BOND
    1    1    2 1     
    2    1   28 1     
    3    1   29 1     
    4    1   30 1     
    5    2    3 1     
    6    2   31 1     
    7    2   32 1     
    8    3    4 1     
    9    3   33 1     
   10    3   34 1     
   11    4    5 1     
   12    4   35 1     
   13    5   14 1     
   14    5    6 2     
   15    6    7 1     
   16    7   11 2     
   17    7    8 1     
   18    8    9 1     
   19    8   16 1     
   20    9   10 2     
   21    9   36 1     
   22   10   11 1     
   23   11   12 1     
   24   12   13 2     
   25   12   14 am    
   26   14   15 1     
   27   16   27 1     
   28   16   17 1     
   29   16   37 1     
   30   17   18 1     
   31   17   38 1     
   32   17   39 1     
   33   18   19 1     
   34   18   20 1     
   35   18   40 1     
   36   19   41 1     
   37   20   21 1     
   38   20   27 1     
   39   20   42 1     
   40   21   22 1     
   41   21   43 1     
   42   21   44 1     
   43   22   23 1     
   44   23   24 ar    
   45   23   25 ar    
   46   23   26 ar    
@<TRIPOS>SUBSTRUCTURE
      1 ****           1
@<TRIPOS>SET
DONOR_HYDROGENS      STATIC     ATOMS    <user>   **** ""
3 35 15 41
ATOM$RED        STATIC     ATOMS    COLORGROUP SYSTEM
3 35 15 41
