#       Name:                0DS
#       Creating user name   gbret
#       Creation time:       Thu Sep  8 18:48:33 2016


#       File generated by GOLD software.
#

@<TRIPOS>MOLECULE
0DS
    68    68     1
SMALL
NO_CHARGES


@<TRIPOS>ATOM
      1 C1           3.3387   4.0471  -0.6398 C.3            1 <1>                0.0000
      2 C2           3.0639   2.5424  -0.6051 C.3            1 <1>                0.0000
      3 C3           3.6495   1.8880  -1.8579 C.3            1 <1>                0.0000
      4 C4           3.7135   1.9339   0.6393 C.3            1 <1>                0.0000
      5 C5           3.3122   0.4621   0.7561 C.3            1 <1>                0.0000
      6 C6           4.0692  -0.1822   1.9193 C.3            1 <1>                0.0000
      7 C7           5.5372  -0.2518   1.5860 C.2            1 <1>                0.0000
      8 O8           5.9431   0.2016   0.5369 O.2            1 <1>                0.0000
      9 N9           6.3991  -0.8178   2.4539 N.am           1 <1>                0.0000
     10 O10          7.7785  -0.8833   2.1408 O.3            1 <1>                0.0000
     11 C11          1.8293   0.3641   1.0061 C.2            1 <1>                0.0000
     12 O12          1.4145   0.1884   2.1322 O.2            1 <1>                0.0000
     13 N13          0.9641   0.4716  -0.0216 N.am           1 <1>                0.0000
     14 C14         -0.4786   0.4796   0.2332 C.3            1 <1>                0.0000
     15 C15         -0.9436   1.9148   0.4876 C.3            1 <1>                0.0000
     16 C16         -2.4423   1.9183   0.7953 C.3            1 <1>                0.0000
     17 C17         -2.6971   1.1594   2.0991 C.3            1 <1>                0.0000
     18 C18         -2.9296   3.3613   0.9415 C.3            1 <1>                0.0000
     19 C19         -1.2033  -0.0784  -0.9645 C.2            1 <1>                0.0000
     20 O20         -0.6672  -0.0771  -2.0525 O.2            1 <1>                0.0000
     21 N21         -2.4471  -0.5788  -0.8267 N.am           1 <1>                0.0000
     22 C22         -3.1083  -1.2217  -1.9650 C.3            1 <1>                0.0000
     23 C23         -4.1563  -2.2120  -1.4533 C.3            1 <1>                0.0000
     24 C24         -3.4710  -3.3282  -0.7080 C.ar           1 <1>                0.0000
     25 C25         -3.0596  -4.4609  -1.3851 C.ar           1 <1>                0.0000
     26 C26         -2.4310  -5.4848  -0.7014 C.ar           1 <1>                0.0000
     27 C27         -2.2133  -5.3756   0.6594 C.ar           1 <1>                0.0000
     28 C28         -2.6238  -4.2425   1.3363 C.ar           1 <1>                0.0000
     29 C29         -3.2486  -3.2168   0.6519 C.ar           1 <1>                0.0000
     30 C30         -3.7802  -0.1730  -2.8135 C.2            1 <1>                0.0000
     31 N31         -4.4554  -0.5345  -3.9225 N.am           1 <1>                0.0000
     32 O32         -3.7133   0.9963  -2.4984 O.2            1 <1>                0.0000
     33 H33          2.8759   4.4807  -1.5263 H              1 <1>                0.0000
     34 H34          2.9214   4.5134   0.2527 H              1 <1>                0.0000
     35 H35          4.4146   4.2194  -0.6705 H              1 <1>                0.0000
     36 H36          1.9880   2.3702  -0.5744 H              1 <1>                0.0000
     37 H37          3.5149   0.8079  -1.8004 H              1 <1>                0.0000
     38 H38          3.1382   2.2713  -2.7409 H              1 <1>                0.0000
     39 H39          4.7128   2.1185  -1.9250 H              1 <1>                0.0000
     40 H40          4.7978   2.0094   0.5569 H              1 <1>                0.0000
     41 H41          3.3780   2.4734   1.5250 H              1 <1>                0.0000
     42 H42          3.5596  -0.0566  -0.1701 H              1 <1>                0.0000
     43 H43          3.9290   0.4159   2.8197 H              1 <1>                0.0000
     44 H44          3.6869  -1.1888   2.0884 H              1 <1>                0.0000
     45 H45          6.0745  -1.1804   3.2930 H              1 <1>                0.0000
     46 H46          8.3172  -1.3063   2.8234 H              1 <1>                0.0000
     47 H47          1.2966   0.5438  -0.9300 H              1 <1>                0.0000
     48 H48         -0.6964  -0.1334   1.1077 H              1 <1>                0.0000
     49 H49         -0.3977   2.3287   1.3355 H              1 <1>                0.0000
     50 H50         -0.7531   2.5209  -0.3980 H              1 <1>                0.0000
     51 H51         -2.9814   1.4335  -0.0186 H              1 <1>                0.0000
     52 H52         -3.7490   1.2473   2.3711 H              1 <1>                0.0000
     53 H53         -2.4436   0.1081   1.9631 H              1 <1>                0.0000
     54 H54         -2.0803   1.5823   2.8921 H              1 <1>                0.0000
     55 H55         -2.7481   3.9020   0.0126 H              1 <1>                0.0000
     56 H56         -3.9973   3.3638   1.1607 H              1 <1>                0.0000
     57 H57         -2.3905   3.8461   1.7554 H              1 <1>                0.0000
     58 H58         -2.9044  -0.5133   0.0262 H              1 <1>                0.0000
     59 H59         -2.3677  -1.7529  -2.5628 H              1 <1>                0.0000
     60 H60         -4.8458  -1.6977  -0.7839 H              1 <1>                0.0000
     61 H61         -4.7090  -2.6245  -2.2974 H              1 <1>                0.0000
     62 H62         -3.2297  -4.5462  -2.4482 H              1 <1>                0.0000
     63 H63         -2.1102  -6.3701  -1.2302 H              1 <1>                0.0000
     64 H64         -1.7228  -6.1758   1.1937 H              1 <1>                0.0000
     65 H65         -2.4541  -4.1573   2.3995 H              1 <1>                0.0000
     66 H66         -3.5694  -2.3315   1.1807 H              1 <1>                0.0000
     67 H67         -4.8878   0.1404  -4.4686 H              1 <1>                0.0000
     68 H68         -4.5089  -1.4697  -4.1745 H              1 <1>                0.0000
@<TRIPOS>BOND
    1    1    2 1     
    2    1   33 1     
    3    1   34 1     
    4    1   35 1     
    5    2    3 1     
    6    2    4 1     
    7    2   36 1     
    8    3   37 1     
    9    3   38 1     
   10    3   39 1     
   11    4    5 1     
   12    4   40 1     
   13    4   41 1     
   14    5    6 1     
   15    5   11 1     
   16    5   42 1     
   17    6    7 1     
   18    6   43 1     
   19    6   44 1     
   20    7    8 2     
   21    7    9 am    
   22    9   10 1     
   23    9   45 1     
   24   10   46 1     
   25   11   12 2     
   26   11   13 am    
   27   13   14 1     
   28   13   47 1     
   29   14   15 1     
   30   14   19 1     
   31   14   48 1     
   32   15   16 1     
   33   15   49 1     
   34   15   50 1     
   35   16   17 1     
   36   16   18 1     
   37   16   51 1     
   38   17   52 1     
   39   17   53 1     
   40   17   54 1     
   41   18   55 1     
   42   18   56 1     
   43   18   57 1     
   44   19   20 2     
   45   19   21 am    
   46   21   22 1     
   47   21   58 1     
   48   22   23 1     
   49   22   30 1     
   50   22   59 1     
   51   23   24 1     
   52   23   60 1     
   53   23   61 1     
   54   24   29 ar    
   55   24   25 ar    
   56   25   26 ar    
   57   25   62 1     
   58   26   27 ar    
   59   26   63 1     
   60   27   28 ar    
   61   27   64 1     
   62   28   29 ar    
   63   28   65 1     
   64   29   66 1     
   65   30   31 am    
   66   30   32 2     
   67   31   67 1     
   68   31   68 1     
@<TRIPOS>SUBSTRUCTURE
      1 ****           1
@<TRIPOS>SET
DONOR_HYDROGENS      STATIC     ATOMS    <user>   **** ""
6 45 46 47 58 67 68
ATOM$RED        STATIC     ATOMS    COLORGROUP SYSTEM
6 45 46 47 58 67 68
