#       Name:                0HT
#       Creating user name   gbret
#       Creation time:       Thu Sep  8 18:55:49 2016


#       File generated by GOLD software.
#

@<TRIPOS>MOLECULE
0HT
    87    87     1
SMALL
NO_CHARGES


@<TRIPOS>ATOM
      1 C1           0.7918  -1.8123   4.1429 C.3            1 <1>                0.0000
      2 C2          -0.5352  -1.4277   3.4856 C.3            1 <1>                0.0000
      3 C3          -0.8062  -2.3578   2.3015 C.3            1 <1>                0.0000
      4 C4          -2.2529  -2.1820   1.8355 C.3            1 <1>                0.0000
      5 C5           0.1447  -2.0127   1.1537 C.3            1 <1>                0.0000
      6 N6           0.0743  -0.5759   0.8765 N.am           1 <1>                0.0000
      7 C7          -0.7334  -0.1168  -0.0999 C.2            1 <1>                0.0000
      8 O8          -1.4875  -0.8763  -0.6703 O.2            1 <1>                0.0000
      9 C9          -0.6994   1.3403  -0.4830 C.3            1 <1>                0.0000
     10 N10         -1.2830   1.5087  -1.8206 N.4            1 <1>                0.0000
     11 H11         -0.8028   0.9094  -2.4750 H              1 <1>                0.0000
     12 H12         -2.2612   1.2624  -1.7942 H              1 <1>                0.0000
     13 C13         -1.1418   2.9083  -2.2438 C.3            1 <1>                0.0000
     14 C14         -1.7497   3.0837  -3.6368 C.3            1 <1>                0.0000
     15 O15         -3.1577   2.8476  -3.5753 O.3            1 <1>                0.0000
     16 C16         -1.4926   4.5092  -4.1297 C.3            1 <1>                0.0000
     17 N17         -0.0452   4.7519  -4.1929 N.4            1 <1>                0.0000
     18 H18          0.1244   5.6919  -4.5179 H              1 <1>                0.0000
     19 H19          0.3557   4.6362  -3.2742 H              1 <1>                0.0000
     20 H20          0.3786   4.0942  -4.8300 H              1 <1>                0.0000
     21 C21         -2.1005   4.6846  -5.5227 C.3            1 <1>                0.0000
     22 C22         -1.9534   6.1423  -5.9635 C.3            1 <1>                0.0000
     23 C23         -2.4474   6.2919  -7.4038 C.3            1 <1>                0.0000
     24 C24         -2.7838   7.0396  -5.0437 C.3            1 <1>                0.0000
     25 C25         -1.5061   2.1533   0.5315 C.3            1 <1>                0.0000
     26 C26         -2.9457   1.6368   0.5698 C.3            1 <1>                0.0000
     27 C27         -0.8753   2.0089   1.9179 C.3            1 <1>                0.0000
     28 C28          1.5538  -2.3810   1.5408 C.2            1 <1>                0.0000
     29 O29          2.3985  -1.5175   1.6485 O.2            1 <1>                0.0000
     30 N30          1.8753  -3.6702   1.7673 N.am           1 <1>                0.0000
     31 C31          3.2662  -4.0414   2.0387 C.3            1 <1>                0.0000
     32 C32          3.3062  -5.4203   2.7006 C.3            1 <1>                0.0000
     33 C33          2.5799  -5.3654   4.0199 C.ar           1 <1>                0.0000
     34 C34          3.2739  -5.0740   5.1793 C.ar           1 <1>                0.0000
     35 C35          2.6077  -5.0237   6.3895 C.ar           1 <1>                0.0000
     36 C36          1.2474  -5.2643   6.4401 C.ar           1 <1>                0.0000
     37 C37          0.5532  -5.5549   5.2806 C.ar           1 <1>                0.0000
     38 C38          1.2187  -5.6010   4.0698 C.ar           1 <1>                0.0000
     39 C39          4.0368  -4.0831   0.7442 C.2            1 <1>                0.0000
     40 O40          3.4811  -3.8287  -0.2981 O.2            1 <1>                0.0000
     41 O41          5.3404  -4.4028   0.7492 O.3            1 <1>                0.0000
     42 C42          6.0191  -4.4231  -0.5343 C.3            1 <1>                0.0000
     43 H43          1.6165  -1.5330   3.4871 H              1 <1>                0.0000
     44 H44          0.8910  -1.2896   5.0942 H              1 <1>                0.0000
     45 H45          0.8133  -2.8883   4.3156 H              1 <1>                0.0000
     46 H46         -1.3415  -1.5212   4.2131 H              1 <1>                0.0000
     47 H47         -0.4812  -0.3976   3.1335 H              1 <1>                0.0000
     48 H48         -0.6462  -3.3917   2.6075 H              1 <1>                0.0000
     49 H49         -2.4065  -1.1540   1.5073 H              1 <1>                0.0000
     50 H50         -2.4530  -2.8616   1.0071 H              1 <1>                0.0000
     51 H51         -2.9299  -2.4051   2.6602 H              1 <1>                0.0000
     52 H52         -0.1445  -2.5693   0.2623 H              1 <1>                0.0000
     53 H53          0.6089   0.0451   1.3956 H              1 <1>                0.0000
     54 H54          0.3329   1.6901  -0.4904 H              1 <1>                0.0000
     55 H55         -1.6606   3.5558  -1.5368 H              1 <1>                0.0000
     56 H56         -0.0851   3.1744  -2.2723 H              1 <1>                0.0000
     57 H57         -1.2918   2.3732  -4.3251 H              1 <1>                0.0000
     58 H58         -3.6310   3.4450  -2.9802 H              1 <1>                0.0000
     59 H59         -1.9504   5.2197  -3.4414 H              1 <1>                0.0000
     60 H60         -1.5817   4.0371  -6.2297 H              1 <1>                0.0000
     61 H61         -3.1571   4.4185  -5.4942 H              1 <1>                0.0000
     62 H62         -0.9049   6.4350  -5.9068 H              1 <1>                0.0000
     63 H63         -3.4959   5.9992  -7.4605 H              1 <1>                0.0000
     64 H64         -2.3426   7.3304  -7.7178 H              1 <1>                0.0000
     65 H65         -1.8558   5.6527  -8.0592 H              1 <1>                0.0000
     66 H66         -2.4318   6.9330  -4.0176 H              1 <1>                0.0000
     67 H67         -2.6790   8.0781  -5.3577 H              1 <1>                0.0000
     68 H68         -3.8322   6.7469  -5.1004 H              1 <1>                0.0000
     69 H69         -1.5045   3.2034   0.2392 H              1 <1>                0.0000
     70 H70         -2.9577   0.6239   0.9723 H              1 <1>                0.0000
     71 H71         -3.5483   2.2870   1.2041 H              1 <1>                0.0000
     72 H72         -3.3569   1.6315  -0.4397 H              1 <1>                0.0000
     73 H73          0.1778   2.2858   1.8686 H              1 <1>                0.0000
     74 H74         -1.3904   2.6631   2.6213 H              1 <1>                0.0000
     75 H75         -0.9640   0.9750   2.2515 H              1 <1>                0.0000
     76 H76          1.1857  -4.3521   1.7505 H              1 <1>                0.0000
     77 H77          3.7153  -3.3053   2.7053 H              1 <1>                0.0000
     78 H78          2.8235  -6.1497   2.0501 H              1 <1>                0.0000
     79 H79          4.3427  -5.7129   2.8683 H              1 <1>                0.0000
     80 H80          4.3367  -4.8860   5.1397 H              1 <1>                0.0000
     81 H81          3.1500  -4.7967   7.2954 H              1 <1>                0.0000
     82 H82          0.7270  -5.2257   7.3857 H              1 <1>                0.0000
     83 H83         -0.5095  -5.7433   5.3202 H              1 <1>                0.0000
     84 H84          0.6763  -5.8280   3.1638 H              1 <1>                0.0000
     85 H85          5.5408  -5.1538  -1.1866 H              1 <1>                0.0000
     86 H86          5.9615  -3.4353  -0.9915 H              1 <1>                0.0000
     87 H87          7.0643  -4.6956  -0.3883 H              1 <1>                0.0000
@<TRIPOS>BOND
    1    1    2 1     
    2    1   43 1     
    3    1   44 1     
    4    1   45 1     
    5    2    3 1     
    6    2   46 1     
    7    2   47 1     
    8    3    4 1     
    9    3    5 1     
   10    3   48 1     
   11    4   49 1     
   12    4   50 1     
   13    4   51 1     
   14    5    6 1     
   15    5   28 1     
   16    5   52 1     
   17    6    7 am    
   18    6   53 1     
   19    7    8 2     
   20    7    9 1     
   21    9   10 1     
   22    9   25 1     
   23    9   54 1     
   24   10   11 1     
   25   10   12 1     
   26   10   13 1     
   27   13   14 1     
   28   13   55 1     
   29   13   56 1     
   30   14   15 1     
   31   14   16 1     
   32   14   57 1     
   33   15   58 1     
   34   16   17 1     
   35   16   21 1     
   36   16   59 1     
   37   17   18 1     
   38   17   19 1     
   39   17   20 1     
   40   21   22 1     
   41   21   60 1     
   42   21   61 1     
   43   22   23 1     
   44   22   24 1     
   45   22   62 1     
   46   23   63 1     
   47   23   64 1     
   48   23   65 1     
   49   24   66 1     
   50   24   67 1     
   51   24   68 1     
   52   25   26 1     
   53   25   27 1     
   54   25   69 1     
   55   26   70 1     
   56   26   71 1     
   57   26   72 1     
   58   27   73 1     
   59   27   74 1     
   60   27   75 1     
   61   28   29 2     
   62   28   30 am    
   63   30   31 1     
   64   30   76 1     
   65   31   32 1     
   66   31   39 1     
   67   31   77 1     
   68   32   33 1     
   69   32   78 1     
   70   32   79 1     
   71   33   38 ar    
   72   33   34 ar    
   73   34   35 ar    
   74   34   80 1     
   75   35   36 ar    
   76   35   81 1     
   77   36   37 ar    
   78   36   82 1     
   79   37   38 ar    
   80   37   83 1     
   81   38   84 1     
   82   39   40 2     
   83   39   41 1     
   84   41   42 1     
   85   42   85 1     
   86   42   86 1     
   87   42   87 1     
@<TRIPOS>SUBSTRUCTURE
      1 ****           1
@<TRIPOS>SET
DONOR_HYDROGENS      STATIC     ATOMS    <user>   **** ""
8 53 11 12 58 18 19 20 76
ATOM$RED        STATIC     ATOMS    COLORGROUP SYSTEM
8 53 11 12 58 18 19 20 76
