#       Name:                0JR
#       Creating user name   gbret
#       Creation time:       Thu Sep  8 18:58:22 2016


#       File generated by GOLD software.
#

@<TRIPOS>MOLECULE
0JR
    45    45     1
SMALL
NO_CHARGES


@<TRIPOS>ATOM
      1 C1          -3.6588  -0.4804  -0.2554 C.3            1 <1>                0.0000
      2 C2          -4.1601   0.0539  -1.5986 C.3            1 <1>                0.0000
      3 C3          -5.6177  -0.3646  -1.8020 C.3            1 <1>                0.0000
      4 C4          -4.0617   1.5807  -1.6089 C.3            1 <1>                0.0000
      5 O5          -4.8629   2.1169  -0.5541 O.3            1 <1>                0.0000
      6 C6          -3.3023  -0.5201  -2.7280 C.3            1 <1>                0.0000
      7 O7          -3.8507  -0.1293  -3.9884 O.3            1 <1>                0.0000
      8 C8          -1.8954   0.0062  -2.6074 C.2            1 <1>                0.0000
      9 O9          -1.4613   0.7731  -3.4406 O.2            1 <1>                0.0000
     10 N10         -1.1194  -0.3754  -1.5736 N.am           1 <1>                0.0000
     11 C11          0.2127   0.2097  -1.4025 C.3            1 <1>                0.0000
     12 C12          0.8781  -0.3909  -0.1626 C.3            1 <1>                0.0000
     13 C13          2.2484   0.2110   0.0134 C.2            1 <1>                0.0000
     14 O14          2.6530   1.0388  -0.7753 O.2            1 <1>                0.0000
     15 N15          3.0244  -0.1706   1.0472 N.am           1 <1>                0.0000
     16 C16          4.3565   0.4145   1.2183 C.3            1 <1>                0.0000
     17 C17          5.0119  -0.1771   2.4396 C.ar           1 <1>                0.0000
     18 C18          4.8440   0.4144   3.6825 C.ar           1 <1>                0.0000
     19 C19          5.4656  -0.1644   4.7781 C.ar           1 <1>                0.0000
     20 C20          6.2269  -1.3038   4.5964 C.ar           1 <1>                0.0000
     21 N21          6.3650  -1.8388   3.3992 N.ar           1 <1>                0.0000
     22 C22          5.7832  -1.3189   2.3359 C.ar           1 <1>                0.0000
     23 H23         -3.6213  -1.5692  -0.2887 H              1 <1>                0.0000
     24 H24         -2.6611  -0.0883  -0.0579 H              1 <1>                0.0000
     25 H25         -4.3369  -0.1642   0.5373 H              1 <1>                0.0000
     26 H26         -6.2382   0.0940  -1.0321 H              1 <1>                0.0000
     27 H27         -5.9561  -0.0363  -2.7847 H              1 <1>                0.0000
     28 H28         -5.6970  -1.4495  -1.7341 H              1 <1>                0.0000
     29 H29         -3.0233   1.8789  -1.4640 H              1 <1>                0.0000
     30 H30         -4.4188   1.9614  -2.5658 H              1 <1>                0.0000
     31 H31         -4.8480   3.0823  -0.5006 H              1 <1>                0.0000
     32 H32         -3.2906  -1.6078  -2.6585 H              1 <1>                0.0000
     33 H33         -3.8919   0.8279  -4.1196 H              1 <1>                0.0000
     34 H34         -1.4430  -1.0375  -0.9428 H              1 <1>                0.0000
     35 H35          0.8201  -0.0064  -2.2815 H              1 <1>                0.0000
     36 H36          0.1225   1.2890  -1.2797 H              1 <1>                0.0000
     37 H37          0.2708  -0.1748   0.7164 H              1 <1>                0.0000
     38 H38          0.9683  -1.4702  -0.2854 H              1 <1>                0.0000
     39 H39          2.7008  -0.8327   1.6780 H              1 <1>                0.0000
     40 H40          4.9639   0.1983   0.3394 H              1 <1>                0.0000
     41 H41          4.2663   1.4937   1.3411 H              1 <1>                0.0000
     42 H42          4.2434   1.3050   3.7944 H              1 <1>                0.0000
     43 H43          5.3569   0.2695   5.7611 H              1 <1>                0.0000
     44 H44          6.7145  -1.7608   5.4448 H              1 <1>                0.0000
     45 H45          5.9191  -1.7854   1.3714 H              1 <1>                0.0000
@<TRIPOS>BOND
    1    1    2 1     
    2    1   23 1     
    3    1   24 1     
    4    1   25 1     
    5    2    3 1     
    6    2    4 1     
    7    2    6 1     
    8    3   26 1     
    9    3   27 1     
   10    3   28 1     
   11    4    5 1     
   12    4   29 1     
   13    4   30 1     
   14    5   31 1     
   15    6    7 1     
   16    6    8 1     
   17    6   32 1     
   18    7   33 1     
   19    8    9 2     
   20    8   10 am    
   21   10   11 1     
   22   10   34 1     
   23   11   12 1     
   24   11   35 1     
   25   11   36 1     
   26   12   13 1     
   27   12   37 1     
   28   12   38 1     
   29   13   14 2     
   30   13   15 am    
   31   15   16 1     
   32   15   39 1     
   33   16   17 1     
   34   16   40 1     
   35   16   41 1     
   36   17   22 ar    
   37   17   18 ar    
   38   18   19 ar    
   39   18   42 1     
   40   19   20 ar    
   41   19   43 1     
   42   20   21 ar    
   43   20   44 1     
   44   21   22 ar    
   45   22   45 1     
@<TRIPOS>SUBSTRUCTURE
      1 ****           1
@<TRIPOS>SET
DONOR_HYDROGENS      STATIC     ATOMS    <user>   **** ""
4 31 33 34 39
ATOM$RED        STATIC     ATOMS    COLORGROUP SYSTEM
4 31 33 34 39
