#       Name:                0K2
#       Creating user name   gbret
#       Creation time:       Thu Sep  8 18:58:59 2016


#       File generated by GOLD software.
#

@<TRIPOS>MOLECULE
0K2
    21    20     1
SMALL
NO_CHARGES


@<TRIPOS>ATOM
      1 O1           1.4215  -3.5912  -4.1283 O.co2          1 <1>                0.0000
      2 P2           1.4002  -2.0247  -4.1197 P.3            1 <1>                0.0000
      3 O3           2.8700  -1.4824  -4.1308 O.co2          1 <1>                0.0000
      4 O4           0.6425  -1.5057  -5.3889 O.co2          1 <1>                0.0000
      5 O5           0.6466  -1.5055  -2.7950 O.3            1 <1>                0.0000
      6 P6           1.1124  -1.2298  -1.2787 P.3            1 <1>                0.0000
      7 O7           1.2935  -2.5761  -0.5428 O.co2          1 <1>                0.0000
      8 O8           2.4526  -0.4611  -1.2834 O.co2          1 <1>                0.0000
      9 O9          -0.0070  -0.3523  -0.5246 O.3            1 <1>                0.0000
     10 C10          0.1597   0.1463   0.8043 C.3            1 <1>                0.0000
     11 C11         -1.0860   0.9349   1.2131 C.3            1 <1>                0.0000
     12 C12         -0.9076   1.4686   2.6359 C.3            1 <1>                0.0000
     13 C13         -2.1345   2.2454   3.0386 C.2            1 <1>                0.0000
     14 O14         -2.7301   1.9530   4.0476 O.2            1 <1>                0.0000
     15 H15          0.3025  -0.6886   1.4903 H              1 <1>                0.0000
     16 H16          1.0314   0.7996   0.8405 H              1 <1>                0.0000
     17 H17         -1.2289   1.7698   0.5271 H              1 <1>                0.0000
     18 H18         -1.9578   0.2816   1.1768 H              1 <1>                0.0000
     19 H19         -0.7647   0.6337   3.3219 H              1 <1>                0.0000
     20 H20         -0.0358   2.1219   2.6721 H              1 <1>                0.0000
     21 H21         -2.4813   3.0636   2.4248 H              1 <1>                0.0000
@<TRIPOS>BOND
    1    1    2 ar    
    2    2    3 ar    
    3    2    4 ar    
    4    2    5 1     
    5    5    6 1     
    6    6    7 ar    
    7    6    8 ar    
    8    6    9 1     
    9    9   10 1     
   10   10   11 1     
   11   10   15 1     
   12   10   16 1     
   13   11   12 1     
   14   11   17 1     
   15   11   18 1     
   16   12   13 1     
   17   12   19 1     
   18   12   20 1     
   19   13   14 2     
   20   13   21 1     
@<TRIPOS>SUBSTRUCTURE
      1 ****           1
