#       Name:                0KT
#       Creating user name   gbret
#       Creation time:       Thu Sep  8 19:00:39 2016


#       File generated by GOLD software.
#

@<TRIPOS>MOLECULE
0KT
    55    57     1
SMALL
NO_CHARGES


@<TRIPOS>ATOM
      1 C1           4.8522  -3.6981  -0.0610 C.3            1 <1>                0.0000
      2 O2           3.6308  -3.2090   0.4966 O.3            1 <1>                0.0000
      3 C3           3.8029  -2.1272   1.4143 C.3            1 <1>                0.0000
      4 C4           2.4373  -1.6868   1.9455 C.3            1 <1>                0.0000
      5 N5           2.6008  -0.4994   2.7878 N.pl3          1 <1>                0.0000
      6 C6           2.8896  -0.5043   4.1203 C.2            1 <1>                0.0000
      7 C7           2.9602   0.7749   4.5411 C.2            1 <1>                0.0000
      8 C8           2.7057   1.5998   3.4277 C.2            1 <1>                0.0000
      9 C9           2.4951   0.7933   2.3676 C.2            1 <1>                0.0000
     10 C10          2.1857   1.2432   0.9630 C.3            1 <1>                0.0000
     11 O11          3.1494   0.6920   0.0632 O.3            1 <1>                0.0000
     12 C12          0.8084   0.7697   0.5757 C.ar           1 <1>                0.0000
     13 C13         -0.2607   0.9897   1.4247 C.ar           1 <1>                0.0000
     14 C14         -1.5242   0.5572   1.0729 C.ar           1 <1>                0.0000
     15 C15         -1.7204  -0.0995  -0.1353 C.ar           1 <1>                0.0000
     16 C16         -0.6442  -0.3189  -0.9858 C.ar           1 <1>                0.0000
     17 C17          0.6156   0.1213  -0.6304 C.ar           1 <1>                0.0000
     18 N18         -2.9969  -0.5387  -0.4940 N.pl3          1 <1>                0.0000
     19 C19         -3.2427  -1.9642  -0.7261 C.3            1 <1>                0.0000
     20 S20         -4.2324   0.5518  -0.6570 S.o2           1 <1>                0.0000
     21 O21         -5.4300  -0.1503  -0.3539 O.2            1 <1>                0.0000
     22 O22         -3.8245   1.7261   0.0315 O.2            1 <1>                0.0000
     23 C23         -4.3262   0.9826  -2.3629 C.ar           1 <1>                0.0000
     24 C24         -3.5897   2.0468  -2.8487 C.ar           1 <1>                0.0000
     25 C25         -3.6634   2.3847  -4.1870 C.ar           1 <1>                0.0000
     26 C26         -4.4732   1.6581  -5.0398 C.ar           1 <1>                0.0000
     27 C27         -5.2090   0.5934  -4.5543 C.ar           1 <1>                0.0000
     28 C28         -5.1321   0.2528  -3.2167 C.ar           1 <1>                0.0000
     29 C29          2.2382   2.7707   0.8935 C.3            1 <1>                0.0000
     30 F30          3.5005   3.2131   1.3035 F              1 <1>                0.0000
     31 F31          2.0030   3.1860  -0.4216 F              1 <1>                0.0000
     32 F32          1.2592   3.3097   1.7349 F              1 <1>                0.0000
     33 H33          4.6362  -4.5174  -0.7467 H              1 <1>                0.0000
     34 H34          5.3525  -2.8945  -0.6013 H              1 <1>                0.0000
     35 H35          5.4996  -4.0556   0.7397 H              1 <1>                0.0000
     36 H36          4.4286  -2.4521   2.2456 H              1 <1>                0.0000
     37 H37          4.2814  -1.2910   0.9046 H              1 <1>                0.0000
     38 H38          1.7807  -1.4507   1.1081 H              1 <1>                0.0000
     39 H39          1.9995  -2.4927   2.5345 H              1 <1>                0.0000
     40 H40          3.0361  -1.3815   4.7331 H              1 <1>                0.0000
     41 H41          3.1728   1.1062   5.5468 H              1 <1>                0.0000
     42 H42          2.6874   2.6796   3.4230 H              1 <1>                0.0000
     43 H43          3.1056  -0.2705  -0.0188 H              1 <1>                0.0000
     44 H44         -0.1074   1.5001   2.3641 H              1 <1>                0.0000
     45 H45         -2.3587   0.7290   1.7366 H              1 <1>                0.0000
     46 H46         -0.7933  -0.8295  -1.9257 H              1 <1>                0.0000
     47 H47          1.4528  -0.0489  -1.2911 H              1 <1>                0.0000
     48 H48         -3.5411  -2.4384   0.2089 H              1 <1>                0.0000
     49 H49         -4.0379  -2.0806  -1.4625 H              1 <1>                0.0000
     50 H50         -2.3320  -2.4342  -1.0974 H              1 <1>                0.0000
     51 H51         -2.9570   2.6144  -2.1824 H              1 <1>                0.0000
     52 H52         -3.0885   3.2166  -4.5664 H              1 <1>                0.0000
     53 H53         -4.5313   1.9226  -6.0853 H              1 <1>                0.0000
     54 H54         -5.8420   0.0260  -5.2204 H              1 <1>                0.0000
     55 H55         -5.7070  -0.5791  -2.8374 H              1 <1>                0.0000
@<TRIPOS>BOND
    1    1    2 1     
    2    1   33 1     
    3    1   34 1     
    4    1   35 1     
    5    2    3 1     
    6    3    4 1     
    7    3   36 1     
    8    3   37 1     
    9    4    5 1     
   10    4   38 1     
   11    4   39 1     
   12    5    9 1     
   13    5    6 1     
   14    6    7 2     
   15    6   40 1     
   16    7    8 1     
   17    7   41 1     
   18    8    9 2     
   19    8   42 1     
   20    9   10 1     
   21   10   11 1     
   22   10   12 1     
   23   10   29 1     
   24   11   43 1     
   25   12   17 ar    
   26   12   13 ar    
   27   13   14 ar    
   28   13   44 1     
   29   14   15 ar    
   30   14   45 1     
   31   15   16 ar    
   32   15   18 1     
   33   16   17 ar    
   34   16   46 1     
   35   17   47 1     
   36   18   19 1     
   37   18   20 1     
   38   19   48 1     
   39   19   49 1     
   40   19   50 1     
   41   20   21 2     
   42   20   22 2     
   43   20   23 1     
   44   23   28 ar    
   45   23   24 ar    
   46   24   25 ar    
   47   24   51 1     
   48   25   26 ar    
   49   25   52 1     
   50   26   27 ar    
   51   26   53 1     
   52   27   28 ar    
   53   27   54 1     
   54   28   55 1     
   55   29   30 1     
   56   29   31 1     
   57   29   32 1     
@<TRIPOS>SUBSTRUCTURE
      1 ****           1
@<TRIPOS>SET
DONOR_HYDROGENS      STATIC     ATOMS    <user>   **** ""
1 43
ATOM$RED        STATIC     ATOMS    COLORGROUP SYSTEM
1 43
