#       Name:                0MZ
#       Creating user name   gbret
#       Creation time:       Thu Sep  8 19:05:52 2016


#       File generated by GOLD software.
#

@<TRIPOS>MOLECULE
0MZ
    46    48     1
SMALL
NO_CHARGES


@<TRIPOS>ATOM
      1 O1           0.3581   3.4377  -0.7179 O.3            1 <1>                0.0000
      2 C2           0.3699   2.0923  -0.7325 C.2            1 <1>                0.0000
      3 N3           1.4503   1.4093  -0.7451 N.2            1 <1>                0.0000
      4 C4           1.4464   0.0695  -0.7591 C.2            1 <1>                0.0000
      5 S5          -0.2512  -0.4476  -0.7560 S.3            1 <1>                0.0000
      6 C6          -0.8954   1.2609  -0.7289 C.3            1 <1>                0.0000
      7 C7          -1.7137   1.5123   0.5392 C.3            1 <1>                0.0000
      8 C8          -2.9602   0.6660   0.5087 C.2            1 <1>                0.0000
      9 O9          -3.1732  -0.0662  -0.4345 O.2            1 <1>                0.0000
     10 N10         -3.8384   0.7227   1.5295 N.am           1 <1>                0.0000
     11 C11         -5.0415   0.0118   1.4578 C.ar           1 <1>                0.0000
     12 C12         -6.1981   0.5432   2.0137 C.ar           1 <1>                0.0000
     13 C13         -7.3838  -0.1609   1.9412 C.ar           1 <1>                0.0000
     14 C14         -7.4203  -1.3942   1.3164 C.ar           1 <1>                0.0000
     15 C15         -6.2706  -1.9262   0.7625 C.ar           1 <1>                0.0000
     16 C16         -5.0828  -1.2239   0.8257 C.ar           1 <1>                0.0000
     17 C17         -6.3149  -3.2706   0.0830 C.3            1 <1>                0.0000
     18 F18         -7.6169  -3.7792   0.1399 F              1 <1>                0.0000
     19 F19         -5.9269  -3.1304  -1.2538 F              1 <1>                0.0000
     20 F20         -5.4419  -4.1501   0.7322 F              1 <1>                0.0000
     21 N21          2.5071  -0.7184  -0.7731 N.pl3          1 <1>                0.0000
     22 H22          2.3954  -1.6819  -0.7830 H              1 <1>                0.0000
     23 N23          3.6910  -0.2063  -0.7736 N.2            1 <1>                0.0000
     24 C24          4.7401  -0.9856  -0.7875 C.2            1 <1>                0.0000
     25 C25          6.0894  -0.4020  -0.7881 C.ar           1 <1>                0.0000
     26 C26          7.2149  -1.2319  -0.8086 C.ar           1 <1>                0.0000
     27 C27          8.4770  -0.6774  -0.8090 C.ar           1 <1>                0.0000
     28 C28          8.6357   0.6981  -0.7891 C.ar           1 <1>                0.0000
     29 C29          7.5315   1.5299  -0.7687 C.ar           1 <1>                0.0000
     30 C30          6.2559   0.9913  -0.7738 C.ar           1 <1>                0.0000
     31 O31          5.1707   1.8078  -0.7538 O.3            1 <1>                0.0000
     32 H32          1.2158   3.8843  -0.7216 H              1 <1>                0.0000
     33 H33         -1.4891   1.4644  -1.6201 H              1 <1>                0.0000
     34 H34         -1.1181   1.2505   1.4138 H              1 <1>                0.0000
     35 H35         -1.9906   2.5653   0.5901 H              1 <1>                0.0000
     36 H36         -3.6364   1.2563   2.3140 H              1 <1>                0.0000
     37 H37         -6.1700   1.5059   2.5023 H              1 <1>                0.0000
     38 H38         -8.2835   0.2518   2.3733 H              1 <1>                0.0000
     39 H39         -8.3488  -1.9431   1.2614 H              1 <1>                0.0000
     40 H40         -4.1852  -1.6397   0.3925 H              1 <1>                0.0000
     41 H41          4.6157  -2.0584  -0.7985 H              1 <1>                0.0000
     42 H42          7.0955  -2.3052  -0.8238 H              1 <1>                0.0000
     43 H43          9.3459  -1.3187  -0.8245 H              1 <1>                0.0000
     44 H44          9.6283   1.1238  -0.7892 H              1 <1>                0.0000
     45 H45          7.6642   2.6016  -0.7529 H              1 <1>                0.0000
     46 H46          4.8529   2.0612  -1.6312 H              1 <1>                0.0000
@<TRIPOS>BOND
    1    1    2 1     
    2    1   32 1     
    3    2    6 1     
    4    2    3 2     
    5    3    4 1     
    6    4    5 1     
    7    4   21 2     
    8    5    6 1     
    9    6    7 1     
   10    6   33 1     
   11    7    8 1     
   12    7   34 1     
   13    7   35 1     
   14    8    9 2     
   15    8   10 am    
   16   10   11 1     
   17   10   36 1     
   18   11   16 ar    
   19   11   12 ar    
   20   12   13 ar    
   21   12   37 1     
   22   13   14 ar    
   23   13   38 1     
   24   14   15 ar    
   25   14   39 1     
   26   15   16 ar    
   27   15   17 1     
   28   16   40 1     
   29   17   18 1     
   30   17   19 1     
   31   17   20 1     
   32   21   22 1     
   33   21   23 1     
   34   23   24 2     
   35   24   25 1     
   36   24   41 1     
   37   25   30 ar    
   38   25   26 ar    
   39   26   27 ar    
   40   26   42 1     
   41   27   28 ar    
   42   27   43 1     
   43   28   29 ar    
   44   28   44 1     
   45   29   30 ar    
   46   29   45 1     
   47   30   31 1     
   48   31   46 1     
@<TRIPOS>SUBSTRUCTURE
      1 ****           1
@<TRIPOS>SET
DONOR_HYDROGENS      STATIC     ATOMS    <user>   **** ""
4 32 36 22 46
ATOM$RED        STATIC     ATOMS    COLORGROUP SYSTEM
4 32 36 22 46
