#       Name:                0OM
#       Creating user name   gbret
#       Creation time:       Thu Sep  8 19:09:18 2016


#       File generated by GOLD software.
#

@<TRIPOS>MOLECULE
0OM
    27    28     1
SMALL
NO_CHARGES


@<TRIPOS>ATOM
      1 O1          -1.2624  -2.3728   0.0032 O.2            1 <1>                0.0000
      2 C2          -1.2789  -1.1582   0.0099 C.2            1 <1>                0.0000
      3 O3          -0.1216  -0.4688   0.0025 O.3            1 <1>                0.0000
      4 C4           1.1067  -1.2430  -0.0133 C.3            1 <1>                0.0000
      5 C5           2.2892  -0.3088  -0.0196 C.ar           1 <1>                0.0000
      6 C6           2.8166   0.1305  -1.2195 C.ar           1 <1>                0.0000
      7 C7           3.9013   0.9874  -1.2253 C.ar           1 <1>                0.0000
      8 C8           4.4584   1.4054  -0.0311 C.ar           1 <1>                0.0000
      9 C9           3.9304   0.9667   1.1688 C.ar           1 <1>                0.0000
     10 C10          2.8430   0.1132   1.1746 C.ar           1 <1>                0.0000
     11 C11         -2.5681  -0.4371   0.0199 C.ar           1 <1>                0.0000
     12 C12         -3.7785  -1.1420   0.0277 C.ar           1 <1>                0.0000
     13 C13         -4.9580  -0.4191   0.0375 C.ar           1 <1>                0.0000
     14 C14         -4.9051   0.9635   0.0392 C.ar           1 <1>                0.0000
     15 N15         -3.7501   1.6010   0.0313 N.ar           1 <1>                0.0000
     16 C16         -2.6008   0.9583   0.0277 C.ar           1 <1>                0.0000
     17 H17          1.1486  -1.8762   0.8729 H              1 <1>                0.0000
     18 H18          1.1316  -1.8666  -0.9070 H              1 <1>                0.0000
     19 H19          2.3814  -0.1960  -2.1525 H              1 <1>                0.0000
     20 H20          4.3138   1.3301  -2.1627 H              1 <1>                0.0000
     21 H21          5.3063   2.0743  -0.0356 H              1 <1>                0.0000
     22 H22          4.3658   1.2930   2.1017 H              1 <1>                0.0000
     23 H23          2.4306  -0.2295   2.1120 H              1 <1>                0.0000
     24 H24         -3.7906  -2.2219   0.0258 H              1 <1>                0.0000
     25 H25         -5.9102  -0.9287   0.0433 H              1 <1>                0.0000
     26 H26         -5.8245   1.5301   0.0468 H              1 <1>                0.0000
     27 H27         -1.6757   1.5155   0.0215 H              1 <1>                0.0000
@<TRIPOS>BOND
    1    1    2 2     
    2    2    3 1     
    3    2   11 1     
    4    3    4 1     
    5    4    5 1     
    6    4   17 1     
    7    4   18 1     
    8    5   10 ar    
    9    5    6 ar    
   10    6    7 ar    
   11    6   19 1     
   12    7    8 ar    
   13    7   20 1     
   14    8    9 ar    
   15    8   21 1     
   16    9   10 ar    
   17    9   22 1     
   18   10   23 1     
   19   11   16 ar    
   20   11   12 ar    
   21   12   13 ar    
   22   12   24 1     
   23   13   14 ar    
   24   13   25 1     
   25   14   15 ar    
   26   14   26 1     
   27   15   16 ar    
   28   16   27 1     
@<TRIPOS>SUBSTRUCTURE
      1 ****           1
