#       Name:                0Q4
#       Creating user name   gbret
#       Creation time:       Thu Sep  8 19:11:40 2016


#       File generated by GOLD software.
#

@<TRIPOS>MOLECULE
0Q4
   130   130     1
SMALL
NO_CHARGES


@<TRIPOS>ATOM
      1 C1         -11.7058   0.5143   4.9410 C.3            1 <1>                0.0000
      2 C2         -11.3891  -0.9773   5.0662 C.3            1 <1>                0.0000
      3 C3         -10.2041  -1.3247   4.1629 C.3            1 <1>                0.0000
      4 C4          -9.8873  -2.8163   4.2881 C.3            1 <1>                0.0000
      5 C5          -8.7023  -3.1636   3.3848 C.3            1 <1>                0.0000
      6 N6          -7.5035  -2.4713   3.8641 N.am           1 <1>                0.0000
      7 C7          -6.4962  -2.1989   3.0111 C.2            1 <1>                0.0000
      8 O8          -6.5822  -2.5270   1.8467 O.2            1 <1>                0.0000
      9 C9          -5.2631  -1.4867   3.5042 C.3            1 <1>                0.0000
     10 C10         -4.6006  -2.3170   4.6053 C.3            1 <1>                0.0000
     11 N11         -4.3240  -1.3105   2.3936 N.am           1 <1>                0.0000
     12 C12         -3.4217  -0.3099   2.4264 C.2            1 <1>                0.0000
     13 O13         -3.3871   0.4447   3.3753 O.2            1 <1>                0.0000
     14 C14         -2.4557  -0.1286   1.2839 C.3            1 <1>                0.0000
     15 C15         -3.2122   0.3684   0.0504 C.3            1 <1>                0.0000
     16 C16         -2.2561   0.4335  -1.1423 C.3            1 <1>                0.0000
     17 C17         -3.0012   0.9231  -2.3573 C.2            1 <1>                0.0000
     18 O18         -4.1871   1.1947  -2.2767 O.co2          1 <1>                0.0000
     19 O19         -2.4182   1.0475  -3.4208 O.co2          1 <1>                0.0000
     20 N20         -1.4346   0.8527   1.6589 N.am           1 <1>                0.0000
     21 C21         -0.1497   0.6581   1.3020 C.2            1 <1>                0.0000
     22 O22          0.1491  -0.2872   0.6034 O.2            1 <1>                0.0000
     23 C23          0.9159   1.6150   1.7710 C.3            1 <1>                0.0000
     24 C24          1.4816   1.1328   3.1083 C.3            1 <1>                0.0000
     25 C25          0.3861   1.1236   4.1431 C.ar           1 <1>                0.0000
     26 C26          0.0697   2.2837   4.8249 C.ar           1 <1>                0.0000
     27 C27         -0.9352   2.2754   5.7742 C.ar           1 <1>                0.0000
     28 C28         -1.6240   1.1069   6.0412 C.ar           1 <1>                0.0000
     29 C29         -1.3082  -0.0530   5.3588 C.ar           1 <1>                0.0000
     30 C30         -0.3062  -0.0436   4.4065 C.ar           1 <1>                0.0000
     31 N31          1.9945   1.6730   0.7754 N.4            1 <1>                0.0000
     32 H32          2.4346   0.7679   0.7032 H              1 <1>                0.0000
     33 H33          1.6112   1.9331  -0.1210 H              1 <1>                0.0000
     34 C34          2.9905   2.6701   1.1901 C.3            1 <1>                0.0000
     35 C35          4.0722   2.7882   0.1145 C.3            1 <1>                0.0000
     36 C36          5.1734   3.7328   0.6003 C.3            1 <1>                0.0000
     37 C37          4.6049   5.1454   0.7487 C.3            1 <1>                0.0000
     38 C38          5.6773   6.0682   1.3314 C.3            1 <1>                0.0000
     39 C39          4.1729   5.6680  -0.6229 C.3            1 <1>                0.0000
     40 N40          4.6445   1.4658  -0.1498 N.am           1 <1>                0.0000
     41 C41          5.2594   1.2201  -1.3237 C.2            1 <1>                0.0000
     42 O42          5.4012   2.1126  -2.1325 O.2            1 <1>                0.0000
     43 C43          5.7706  -0.1638  -1.6313 C.3            1 <1>                0.0000
     44 N44          5.8810  -0.3323  -3.0824 N.am           1 <1>                0.0000
     45 C45          5.8206  -1.5649  -3.6242 C.2            1 <1>                0.0000
     46 O46          5.6749  -2.5345  -2.9105 O.2            1 <1>                0.0000
     47 C47          5.9342  -1.7382  -5.1169 C.3            1 <1>                0.0000
     48 N48          6.3173  -3.1233  -5.4213 N.4            1 <1>                0.0000
     49 H49          5.6156  -3.7530  -5.0620 H              1 <1>                0.0000
     50 H50          6.3934  -3.2393  -6.4207 H              1 <1>                0.0000
     51 H51          7.2062  -3.3288  -4.9903 H              1 <1>                0.0000
     52 C52          4.5864  -1.4265  -5.7705 C.3            1 <1>                0.0000
     53 C53          4.7330  -1.4807  -7.2925 C.3            1 <1>                0.0000
     54 C54          3.3852  -1.1690  -7.9461 C.3            1 <1>                0.0000
     55 N55          3.5255  -1.2210  -9.4034 N.pl3          1 <1>                0.0000
     56 C56          2.4441  -0.9744 -10.2039 C.cat          1 <1>                0.0000
     57 N57          1.2634  -0.6871  -9.6584 N.pl3          1 <1>                0.0000
     58 N58          2.5717  -1.0216 -11.5289 N.pl3          1 <1>                0.0000
     59 H59          3.4315  -1.2309 -11.9262 H              1 <1>                0.0000
     60 H60          1.8048  -0.8468 -12.0965 H              1 <1>                0.0000
     61 C61          7.1466  -0.3534  -0.9897 C.3            1 <1>                0.0000
     62 C62          7.0485  -0.0913   0.5144 C.3            1 <1>                0.0000
     63 C63          7.6270  -1.7865  -1.2274 C.3            1 <1>                0.0000
     64 C64         -8.4681  -4.6520   3.4136 C.2            1 <1>                0.0000
     65 N65         -9.4405  -5.4951   3.0135 N.am           1 <1>                0.0000
     66 O66         -7.4045  -5.0912   3.7967 O.2            1 <1>                0.0000
     67 H67        -10.8357   1.0971   5.2430 H              1 <1>                0.0000
     68 H68        -11.9574   0.7467   3.9062 H              1 <1>                0.0000
     69 H69        -12.5501   0.7617   5.5845 H              1 <1>                0.0000
     70 H70        -11.1375  -1.2097   6.1010 H              1 <1>                0.0000
     71 H71        -12.2593  -1.5602   4.7642 H              1 <1>                0.0000
     72 H72        -10.4557  -1.0923   3.1281 H              1 <1>                0.0000
     73 H73         -9.3339  -0.7418   4.4649 H              1 <1>                0.0000
     74 H74         -9.6357  -3.0487   5.3229 H              1 <1>                0.0000
     75 H75        -10.7575  -3.3991   3.9861 H              1 <1>                0.0000
     76 H76         -8.9195  -2.8496   2.3638 H              1 <1>                0.0000
     77 H77         -7.4347  -2.2089   4.7954 H              1 <1>                0.0000
     78 H78         -5.5418  -0.5112   3.9026 H              1 <1>                0.0000
     79 H79         -3.7086  -1.8019   4.9620 H              1 <1>                0.0000
     80 H80         -5.2992  -2.4481   5.4316 H              1 <1>                0.0000
     81 H81         -4.3219  -3.2926   4.2069 H              1 <1>                0.0000
     82 H82         -4.3517  -1.9139   1.6347 H              1 <1>                0.0000
     83 H83         -1.9779  -1.0817   1.0575 H              1 <1>                0.0000
     84 H84         -4.0289  -0.3171  -0.1756 H              1 <1>                0.0000
     85 H85         -3.6156   1.3617   0.2473 H              1 <1>                0.0000
     86 H86         -1.4394   1.1191  -0.9163 H              1 <1>                0.0000
     87 H87         -1.8528  -0.5598  -1.3392 H              1 <1>                0.0000
     88 H88         -1.6834   1.6426   2.1639 H              1 <1>                0.0000
     89 H89          0.4832   2.6076   1.8962 H              1 <1>                0.0000
     90 H90          1.8800   0.1249   2.9920 H              1 <1>                0.0000
     91 H91          2.2785   1.8037   3.4288 H              1 <1>                0.0000
     92 H92          0.6078   3.1966   4.6163 H              1 <1>                0.0000
     93 H93         -1.1820   3.1816   6.3074 H              1 <1>                0.0000
     94 H94         -2.4086   1.1002   6.7834 H              1 <1>                0.0000
     95 H95         -1.8461  -0.9659   5.5677 H              1 <1>                0.0000
     96 H96         -0.0594  -0.9498   3.8733 H              1 <1>                0.0000
     97 H97          2.5036   3.6362   1.3235 H              1 <1>                0.0000
     98 H98          3.4456   2.3596   2.1306 H              1 <1>                0.0000
     99 H99          3.6324   3.1835  -0.8012 H              1 <1>                0.0000
    100 H100         5.5479   3.3887   1.5644 H              1 <1>                0.0000
    101 H101         5.9885   3.7432  -0.1233 H              1 <1>                0.0000
    102 H102         3.7437   5.1223   1.4164 H              1 <1>                0.0000
    103 H103         6.5385   6.0914   0.6637 H              1 <1>                0.0000
    104 H104         5.2723   7.0746   1.4371 H              1 <1>                0.0000
    105 H105         5.9850   5.6959   2.3085 H              1 <1>                0.0000
    106 H106         5.0456   5.7541  -1.2702 H              1 <1>                0.0000
    107 H107         3.4581   4.9752  -1.0670 H              1 <1>                0.0000
    108 H108         3.7073   6.6469  -0.5086 H              1 <1>                0.0000
    109 H109         4.5810   0.7671   0.5200 H              1 <1>                0.0000
    110 H110         5.0780  -0.9043  -1.2312 H              1 <1>                0.0000
    111 H111         5.9975   0.4433  -3.6532 H              1 <1>                0.0000
    112 H112         6.6922  -1.0578  -5.5051 H              1 <1>                0.0000
    113 H113         3.8485  -2.1620  -5.4501 H              1 <1>                0.0000
    114 H114         4.2597  -0.4303  -5.4722 H              1 <1>                0.0000
    115 H115         5.4709  -0.7452  -7.6129 H              1 <1>                0.0000
    116 H116         5.0597  -2.4769  -7.5908 H              1 <1>                0.0000
    117 H117         2.6473  -1.9045  -7.6257 H              1 <1>                0.0000
    118 H118         3.0585  -0.1728  -7.6478 H              1 <1>                0.0000
    119 H119         4.3853  -1.4302  -9.8007 H              1 <1>                0.0000
    120 H120         1.1705  -0.6527  -8.6935 H              1 <1>                0.0000
    121 H121         0.4966  -0.5122 -10.2260 H              1 <1>                0.0000
    122 H122         7.8546   0.3456  -1.4350 H              1 <1>                0.0000
    123 H123         6.2594  -0.7108   0.9405 H              1 <1>                0.0000
    124 H124         7.9988  -0.3363   0.9887 H              1 <1>                0.0000
    125 H125         6.8174   0.9601   0.6857 H              1 <1>                0.0000
    126 H126         7.6969  -1.9733  -2.2990 H              1 <1>                0.0000
    127 H127         8.6073  -1.9216  -0.7703 H              1 <1>                0.0000
    128 H128         6.9191  -2.4856  -0.7822 H              1 <1>                0.0000
    129 H129        -9.2896  -6.4532   3.0321 H              1 <1>                0.0000
    130 H130       -10.2911  -5.1440   2.7070 H              1 <1>                0.0000
@<TRIPOS>BOND
    1    1    2 1     
    2    1   67 1     
    3    1   68 1     
    4    1   69 1     
    5    2    3 1     
    6    2   70 1     
    7    2   71 1     
    8    3    4 1     
    9    3   72 1     
   10    3   73 1     
   11    4    5 1     
   12    4   74 1     
   13    4   75 1     
   14    5    6 1     
   15    5   64 1     
   16    5   76 1     
   17    6    7 am    
   18    6   77 1     
   19    7    8 2     
   20    7    9 1     
   21    9   10 1     
   22    9   11 1     
   23    9   78 1     
   24   10   79 1     
   25   10   80 1     
   26   10   81 1     
   27   11   12 am    
   28   11   82 1     
   29   12   13 2     
   30   12   14 1     
   31   14   15 1     
   32   14   20 1     
   33   14   83 1     
   34   15   16 1     
   35   15   84 1     
   36   15   85 1     
   37   16   17 1     
   38   16   86 1     
   39   16   87 1     
   40   17   18 ar    
   41   17   19 ar    
   42   20   21 am    
   43   20   88 1     
   44   21   22 2     
   45   21   23 1     
   46   23   24 1     
   47   23   31 1     
   48   23   89 1     
   49   24   25 1     
   50   24   90 1     
   51   24   91 1     
   52   25   30 ar    
   53   25   26 ar    
   54   26   27 ar    
   55   26   92 1     
   56   27   28 ar    
   57   27   93 1     
   58   28   29 ar    
   59   28   94 1     
   60   29   30 ar    
   61   29   95 1     
   62   30   96 1     
   63   31   32 1     
   64   31   33 1     
   65   31   34 1     
   66   34   35 1     
   67   34   97 1     
   68   34   98 1     
   69   35   36 1     
   70   35   40 1     
   71   35   99 1     
   72   36   37 1     
   73   36  100 1     
   74   36  101 1     
   75   37   38 1     
   76   37   39 1     
   77   37  102 1     
   78   38  103 1     
   79   38  104 1     
   80   38  105 1     
   81   39  106 1     
   82   39  107 1     
   83   39  108 1     
   84   40   41 am    
   85   40  109 1     
   86   41   42 2     
   87   41   43 1     
   88   43   44 1     
   89   43   61 1     
   90   43  110 1     
   91   44   45 am    
   92   44  111 1     
   93   45   46 2     
   94   45   47 1     
   95   47   48 1     
   96   47   52 1     
   97   47  112 1     
   98   48   49 1     
   99   48   50 1     
  100   48   51 1     
  101   52   53 1     
  102   52  113 1     
  103   52  114 1     
  104   53   54 1     
  105   53  115 1     
  106   53  116 1     
  107   54   55 1     
  108   54  117 1     
  109   54  118 1     
  110   55   56 ar    
  111   55  119 1     
  112   56   57 ar    
  113   56   58 ar    
  114   57  120 1     
  115   57  121 1     
  116   58   59 1     
  117   58   60 1     
  118   61   62 1     
  119   61   63 1     
  120   61  122 1     
  121   62  123 1     
  122   62  124 1     
  123   62  125 1     
  124   63  126 1     
  125   63  127 1     
  126   63  128 1     
  127   64   65 am    
  128   64   66 2     
  129   65  129 1     
  130   65  130 1     
@<TRIPOS>SUBSTRUCTURE
      1 ****           1
@<TRIPOS>SET
DONOR_HYDROGENS      STATIC     ATOMS    <user>   **** ""
17 77 82 88 32 33 109 111 49 50 51 119 120 121 59 60 129 130
ATOM$RED        STATIC     ATOMS    COLORGROUP SYSTEM
17 77 82 88 32 33 109 111 49 50 51 119 120 121 59 60 129 130
