#       Name:                0RR
#       Creating user name   gbret
#       Creation time:       Thu Sep  8 19:14:39 2016


#       File generated by GOLD software.
#

@<TRIPOS>MOLECULE
0RR
    44    47     1
SMALL
NO_CHARGES


@<TRIPOS>ATOM
      1 O1           5.7204  -2.9415   3.5055 O.co2          1 <1>                0.0000
      2 C2           5.8292  -1.7287   3.4443 C.2            1 <1>                0.0000
      3 O3           6.9305  -1.2109   3.5180 O.co2          1 <1>                0.0000
      4 C4           4.6029  -0.8699   3.2713 C.3            1 <1>                0.0000
      5 C5           3.3616  -1.7617   3.2007 C.3            1 <1>                0.0000
      6 N6           2.1696  -0.9269   3.0325 N.am           1 <1>                0.0000
      7 C7           1.5114  -0.4711   4.1036 C.2            1 <1>                0.0000
      8 S8           1.9135  -0.7584   5.7428 S.2            1 <1>                0.0000
      9 S9           0.1454   0.4872   3.5072 S.3            1 <1>                0.0000
     10 C10          0.5262   0.2281   1.7931 C.2            1 <1>                0.0000
     11 C11          1.7414  -0.6154   1.8203 C.2            1 <1>                0.0000
     12 O12          2.2973  -0.9981   0.8096 O.2            1 <1>                0.0000
     13 C13         -0.1520   0.7074   0.6892 C.2            1 <1>                0.0000
     14 C14          0.1715   0.4787  -0.7338 C.2            1 <1>                0.0000
     15 O15          1.1020  -0.1793  -1.1598 O.2            1 <1>                0.0000
     16 N16         -0.7445   1.1255  -1.4745 N.am           1 <1>                0.0000
     17 C17         -0.7632   1.1374  -2.9394 C.3            1 <1>                0.0000
     18 C18         -1.4140  -0.1247  -3.4438 C.ar           1 <1>                0.0000
     19 C19         -0.6399  -1.2334  -3.7357 C.ar           1 <1>                0.0000
     20 Cl20         1.0816  -1.1713  -3.5204 Cl             1 <1>                0.0000
     21 C21         -1.2380  -2.3919  -4.1988 C.ar           1 <1>                0.0000
     22 C22         -2.6087  -2.4416  -4.3698 C.ar           1 <1>                0.0000
     23 C23         -3.3826  -1.3340  -4.0787 C.ar           1 <1>                0.0000
     24 C24         -2.7863  -0.1769  -3.6097 C.ar           1 <1>                0.0000
     25 Cl25        -3.7586   1.2139  -3.2436 Cl             1 <1>                0.0000
     26 C26         -1.6730   1.7814  -0.6732 C.ar           1 <1>                0.0000
     27 C27         -2.7784   2.5625  -0.9901 C.ar           1 <1>                0.0000
     28 C28         -3.5520   3.1095   0.0140 C.ar           1 <1>                0.0000
     29 C29         -3.2390   2.8893   1.3463 C.ar           1 <1>                0.0000
     30 Cl30        -4.2238   3.5857   2.5949 Cl             1 <1>                0.0000
     31 C31         -2.1449   2.1161   1.6814 C.ar           1 <1>                0.0000
     32 C32         -1.3624   1.5550   0.6754 C.ar           1 <1>                0.0000
     33 H33          4.5136  -0.1892   4.1179 H              1 <1>                0.0000
     34 H34          4.6895  -0.2943   2.3498 H              1 <1>                0.0000
     35 H35          3.4509  -2.4424   2.3541 H              1 <1>                0.0000
     36 H36          3.2750  -2.3374   4.1222 H              1 <1>                0.0000
     37 H37         -1.3278   2.0019  -3.2885 H              1 <1>                0.0000
     38 H38          0.2583   1.1947  -3.3153 H              1 <1>                0.0000
     39 H39         -0.6337  -3.2574  -4.4271 H              1 <1>                0.0000
     40 H40         -3.0751  -3.3461  -4.7313 H              1 <1>                0.0000
     41 H41         -4.4536  -1.3733  -4.2129 H              1 <1>                0.0000
     42 H42         -3.0324   2.7421  -2.0243 H              1 <1>                0.0000
     43 H43         -4.4090   3.7151  -0.2409 H              1 <1>                0.0000
     44 H44         -1.8998   1.9437   2.7190 H              1 <1>                0.0000
@<TRIPOS>BOND
    1    1    2 ar    
    2    2    3 ar    
    3    2    4 1     
    4    4    5 1     
    5    4   33 1     
    6    4   34 1     
    7    5    6 1     
    8    5   35 1     
    9    5   36 1     
   10    6   11 am    
   11    6    7 am    
   12    7    8 2     
   13    7    9 1     
   14    9   10 1     
   15   10   11 1     
   16   10   13 2     
   17   11   12 2     
   18   13   32 1     
   19   13   14 1     
   20   14   15 2     
   21   14   16 am    
   22   16   17 1     
   23   16   26 1     
   24   17   18 1     
   25   17   37 1     
   26   17   38 1     
   27   18   24 ar    
   28   18   19 ar    
   29   19   20 1     
   30   19   21 ar    
   31   21   22 ar    
   32   21   39 1     
   33   22   23 ar    
   34   22   40 1     
   35   23   24 ar    
   36   23   41 1     
   37   24   25 1     
   38   26   32 ar    
   39   26   27 ar    
   40   27   28 ar    
   41   27   42 1     
   42   28   29 ar    
   43   28   43 1     
   44   29   30 1     
   45   29   31 ar    
   46   31   32 ar    
   47   31   44 1     
@<TRIPOS>SUBSTRUCTURE
      1 ****           1
