#       Name:                0TM
#       Creating user name   gbret
#       Creation time:       Thu Sep  8 19:19:08 2016


#       File generated by GOLD software.
#

@<TRIPOS>MOLECULE
0TM
    47    49     1
SMALL
NO_CHARGES


@<TRIPOS>ATOM
      1 C1          -4.3821   2.8981  -4.8917 C.3            1 <1>                0.0000
      2 O2          -2.9934   3.1835  -4.7127 O.3            1 <1>                0.0000
      3 C3          -2.3670   2.5727  -3.6728 C.ar           1 <1>                0.0000
      4 C4          -3.0753   1.7123  -2.8470 C.ar           1 <1>                0.0000
      5 C5          -2.4428   1.0894  -1.7899 C.ar           1 <1>                0.0000
      6 Cl6         -3.3321   0.0127  -0.7586 Cl             1 <1>                0.0000
      7 C7          -1.0875   1.3251  -1.5507 C.ar           1 <1>                0.0000
      8 C8          -0.3755   2.1908  -2.3819 C.ar           1 <1>                0.0000
      9 C9          -1.0132   2.8075  -3.4420 C.ar           1 <1>                0.0000
     10 O10         -0.3213   3.6513  -4.2539 O.3            1 <1>                0.0000
     11 C11          1.0607   3.8540  -3.9524 C.3            1 <1>                0.0000
     12 C12         -0.4076   0.6586  -0.4175 C.ar           1 <1>                0.0000
     13 N13         -0.4195  -0.6686  -0.3000 N.ar           1 <1>                0.0000
     14 C14          0.1896  -1.2672   0.7144 C.ar           1 <1>                0.0000
     15 S15          0.1386  -3.0256   0.8148 S.3            1 <1>                0.0000
     16 C16          1.0916  -3.2815   2.3322 C.3            1 <1>                0.0000
     17 C17          1.1824  -4.7568   2.6255 C.2            1 <1>                0.0000
     18 O18          0.6548  -5.5566   1.8819 O.2            1 <1>                0.0000
     19 N19          1.8499  -5.1876   3.7143 N.am           1 <1>                0.0000
     20 C20          1.9382  -6.6219   3.9994 C.3            1 <1>                0.0000
     21 C21          2.4872  -4.2216   4.6125 C.3            1 <1>                0.0000
     22 N22          0.8348  -0.5944   1.6543 N.ar           1 <1>                0.0000
     23 C23          0.8982   0.7339   1.6173 C.ar           1 <1>                0.0000
     24 N24          1.4745   1.6824   2.4220 N.pl3          1 <1>                0.0000
     25 H25          1.9779   1.4913   3.2288 H              1 <1>                0.0000
     26 C26          1.2413   2.9299   1.9301 C.2            1 <1>                0.0000
     27 C27          0.5044   2.8415   0.7865 C.2            1 <1>                0.0000
     28 C28          0.0536   3.9280  -0.0301 C.1            1 <1>                0.0000
     29 N29         -0.3040   4.7900  -0.6779 N.1            1 <1>                0.0000
     30 C30          0.2694   1.4083   0.5550 C.ar           1 <1>                0.0000
     31 H31         -4.9327   3.1990  -4.0004 H              1 <1>                0.0000
     32 H32         -4.7581   3.4485  -5.7541 H              1 <1>                0.0000
     33 H33         -4.5149   1.8289  -5.0570 H              1 <1>                0.0000
     34 H34         -4.1237   1.5297  -3.0312 H              1 <1>                0.0000
     35 H35          0.6729   2.3755  -2.1998 H              1 <1>                0.0000
     36 H36          1.1567   4.2687  -2.9490 H              1 <1>                0.0000
     37 H37          1.5873   2.9010  -4.0036 H              1 <1>                0.0000
     38 H38          1.4924   4.5468  -4.6747 H              1 <1>                0.0000
     39 H39          2.0944  -2.8740   2.2045 H              1 <1>                0.0000
     40 H40          0.5969  -2.7759   3.1615 H              1 <1>                0.0000
     41 H41          2.4329  -7.1274   3.1701 H              1 <1>                0.0000
     42 H42          2.5121  -6.7760   4.9132 H              1 <1>                0.0000
     43 H43          0.9354  -7.0293   4.1271 H              1 <1>                0.0000
     44 H44          1.7807  -3.9254   5.3878 H              1 <1>                0.0000
     45 H45          3.3631  -4.6776   5.0741 H              1 <1>                0.0000
     46 H46          2.7921  -3.3430   4.0439 H              1 <1>                0.0000
     47 H47          1.5875   3.8498   2.3777 H              1 <1>                0.0000
@<TRIPOS>BOND
    1    1    2 1     
    2    1   31 1     
    3    1   32 1     
    4    1   33 1     
    5    2    3 1     
    6    3    9 ar    
    7    3    4 ar    
    8    4    5 ar    
    9    4   34 1     
   10    5    6 1     
   11    5    7 ar    
   12    7    8 ar    
   13    7   12 1     
   14    8    9 ar    
   15    8   35 1     
   16    9   10 1     
   17   10   11 1     
   18   11   36 1     
   19   11   37 1     
   20   11   38 1     
   21   12   30 ar    
   22   12   13 ar    
   23   13   14 ar    
   24   14   15 1     
   25   14   22 ar    
   26   15   16 1     
   27   16   17 1     
   28   16   39 1     
   29   16   40 1     
   30   17   18 2     
   31   17   19 am    
   32   19   20 1     
   33   19   21 1     
   34   20   41 1     
   35   20   42 1     
   36   20   43 1     
   37   21   44 1     
   38   21   45 1     
   39   21   46 1     
   40   22   23 ar    
   41   23   30 ar    
   42   23   24 1     
   43   24   25 1     
   44   24   26 1     
   45   26   27 2     
   46   26   47 1     
   47   27   28 1     
   48   27   30 1     
   49   28   29 3     
@<TRIPOS>SUBSTRUCTURE
      1 ****           1
@<TRIPOS>SET
DONOR_HYDROGENS      STATIC     ATOMS    <user>   **** ""
1 25
ATOM$RED        STATIC     ATOMS    COLORGROUP SYSTEM
1 25
