#       Name:                0WC
#       Creating user name   gbret
#       Creation time:       Thu Sep  8 19:24:47 2016


#       File generated by GOLD software.
#

@<TRIPOS>MOLECULE
0WC
    43    46     1
SMALL
NO_CHARGES


@<TRIPOS>ATOM
      1 C1           3.0615   4.3885  -0.1103 C.3            1 <1>                0.0000
      2 C2           3.0856   2.8606  -0.0330 C.3            1 <1>                0.0000
      3 O3           3.8662   2.4529   1.0924 O.3            1 <1>                0.0000
      4 C4           1.7111   2.3550   0.1142 C.1            1 <1>                0.0000
      5 C5           0.6147   1.9518   0.2315 C.1            1 <1>                0.0000
      6 C6          -0.7225   1.4599   0.3747 C.ar           1 <1>                0.0000
      7 C7          -1.7947   2.3527   0.4167 C.ar           1 <1>                0.0000
      8 C8          -3.0799   1.8711   0.5549 C.ar           1 <1>                0.0000
      9 C9          -3.3098   0.5105   0.6516 C.ar           1 <1>                0.0000
     10 C10         -4.5988  -0.2657   0.8072 C.3            1 <1>                0.0000
     11 C11         -4.1606  -1.7385   0.8530 C.3            1 <1>                0.0000
     12 N12         -2.7013  -1.7098   0.7251 N.pl3          1 <1>                0.0000
     13 C13         -2.2556  -0.3903   0.6116 C.ar           1 <1>                0.0000
     14 C14         -0.9551   0.0912   0.4663 C.ar           1 <1>                0.0000
     15 C15         -1.8819  -2.8288   0.7186 C.ar           1 <1>                0.0000
     16 N16         -0.5632  -2.6985   0.6136 N.ar           1 <1>                0.0000
     17 C17          0.2218  -3.7651   0.6076 C.ar           1 <1>                0.0000
     18 N18          1.5913  -3.5943   0.4973 N.pl3          1 <1>                0.0000
     19 N19         -0.2702  -4.9912   0.7050 N.ar           1 <1>                0.0000
     20 C20         -1.5751  -5.1952   0.8126 C.ar           1 <1>                0.0000
     21 C21         -2.4299  -4.1093   0.8283 C.ar           1 <1>                0.0000
     22 Cl22        -4.1458  -4.3319   0.9683 Cl             1 <1>                0.0000
     23 C23          3.6935   2.3034  -1.2943 C.2            1 <1>                0.0000
     24 N24          3.2307   2.4934  -2.4837 N.2            1 <1>                0.0000
     25 C25          3.8863   1.9330  -3.4801 C.2            1 <1>                0.0000
     26 C26          4.9619   1.2312  -3.1107 C.2            1 <1>                0.0000
     27 S27          5.1005   1.3339  -1.3572 S.3            1 <1>                0.0000
     28 H28          4.0794   4.7629  -0.2193 H              1 <1>                0.0000
     29 H29          2.4661   4.6995  -0.9687 H              1 <1>                0.0000
     30 H30          2.6218   4.7916   0.8020 H              1 <1>                0.0000
     31 H31          3.9252   1.4941   1.2035 H              1 <1>                0.0000
     32 H32         -1.6188   3.4156   0.3418 H              1 <1>                0.0000
     33 H33         -3.9111   2.5600   0.5880 H              1 <1>                0.0000
     34 H34         -5.0996   0.0110   1.7350 H              1 <1>                0.0000
     35 H35         -5.2537  -0.0902  -0.0462 H              1 <1>                0.0000
     36 H36         -4.4481  -2.1891   1.8029 H              1 <1>                0.0000
     37 H37         -4.6021  -2.2902   0.0230 H              1 <1>                0.0000
     38 H38         -0.1260  -0.5999   0.4287 H              1 <1>                0.0000
     39 H39          1.9646  -2.7019   0.4257 H              1 <1>                0.0000
     40 H40          2.1776  -4.3671   0.4916 H              1 <1>                0.0000
     41 H41         -1.9660  -6.1989   0.8915 H              1 <1>                0.0000
     42 H42          3.5792   2.0324  -4.5107 H              1 <1>                0.0000
     43 H43          5.6304   0.6984  -3.7708 H              1 <1>                0.0000
@<TRIPOS>BOND
    1    1    2 1     
    2    1   28 1     
    3    1   29 1     
    4    1   30 1     
    5    2    3 1     
    6    2    4 1     
    7    2   23 1     
    8    3   31 1     
    9    4    5 3     
   10    5    6 1     
   11    6   14 ar    
   12    6    7 ar    
   13    7    8 ar    
   14    7   32 1     
   15    8    9 ar    
   16    8   33 1     
   17    9   13 ar    
   18    9   10 1     
   19   10   11 1     
   20   10   34 1     
   21   10   35 1     
   22   11   12 1     
   23   11   36 1     
   24   11   37 1     
   25   12   13 1     
   26   12   15 1     
   27   13   14 ar    
   28   14   38 1     
   29   15   21 ar    
   30   15   16 ar    
   31   16   17 ar    
   32   17   18 1     
   33   17   19 ar    
   34   18   39 1     
   35   18   40 1     
   36   19   20 ar    
   37   20   21 ar    
   38   20   41 1     
   39   21   22 1     
   40   23   27 1     
   41   23   24 2     
   42   24   25 1     
   43   25   26 2     
   44   25   42 1     
   45   26   27 1     
   46   26   43 1     
@<TRIPOS>SUBSTRUCTURE
      1 ****           1
@<TRIPOS>SET
DONOR_HYDROGENS      STATIC     ATOMS    <user>   **** ""
3 31 39 40
ATOM$RED        STATIC     ATOMS    COLORGROUP SYSTEM
3 31 39 40
