#       Name:                0YD
#       Creating user name   gbret
#       Creation time:       Thu Sep  8 19:29:15 2016


#       File generated by GOLD software.
#

@<TRIPOS>MOLECULE
0YD
    36    38     1
SMALL
NO_CHARGES


@<TRIPOS>ATOM
      1 O1           6.6867  -3.5669   1.8427 O.co2          1 <1>                0.0000
      2 C2           6.6701  -2.3478   1.8494 C.2            1 <1>                0.0000
      3 O3           7.7176  -1.7239   1.8428 O.co2          1 <1>                0.0000
      4 C4           5.3550  -1.6121   1.8597 C.3            1 <1>                0.0000
      5 C5           4.2056  -2.6220   1.8596 C.3            1 <1>                0.0000
      6 C6           2.8905  -1.8864   1.8699 C.2            1 <1>                0.0000
      7 C7           2.1781  -1.4911   0.7906 C.2            1 <1>                0.0000
      8 C8           1.0365  -0.8509   1.3491 C.2            1 <1>                0.0000
      9 N9           1.1773  -0.9258   2.6497 N.2            1 <1>                0.0000
     10 O10          2.1968  -1.5019   2.9508 O.3            1 <1>                0.0000
     11 C11         -0.0861  -0.2246   0.6085 C.ar           1 <1>                0.0000
     12 C12         -0.0916  -0.2319  -0.7858 C.ar           1 <1>                0.0000
     13 C13         -1.1341   0.3492  -1.4736 C.ar           1 <1>                0.0000
     14 C14         -2.1841   0.9447  -0.7754 C.ar           1 <1>                0.0000
     15 C15         -2.1786   0.9519   0.6191 C.ar           1 <1>                0.0000
     16 C16         -1.1386   0.3661   1.3068 C.ar           1 <1>                0.0000
     17 C17         -3.3064   1.5707  -1.5158 C.ar           1 <1>                0.0000
     18 C18         -3.3170   1.5602  -2.9098 C.ar           1 <1>                0.0000
     19 C19         -4.3636   2.1436  -3.5941 C.ar           1 <1>                0.0000
     20 C20         -5.4017   2.7385  -2.8998 C.ar           1 <1>                0.0000
     21 C21         -5.3971   2.7522  -1.5157 C.ar           1 <1>                0.0000
     22 Cl22        -6.7037   3.5008  -0.6520 Cl             1 <1>                0.0000
     23 C23         -4.3568   2.1664  -0.8206 C.ar           1 <1>                0.0000
     24 H24          5.2929  -0.9911   2.7533 H              1 <1>                0.0000
     25 H25          5.2845  -0.9815   0.9734 H              1 <1>                0.0000
     26 H26          4.2677  -3.2430   0.9659 H              1 <1>                0.0000
     27 H27          4.2761  -3.2527   2.7459 H              1 <1>                0.0000
     28 H28          2.4196  -1.6293  -0.2530 H              1 <1>                0.0000
     29 H29          0.7218  -0.6927  -1.3266 H              1 <1>                0.0000
     30 H30         -1.1381   0.3439  -2.5536 H              1 <1>                0.0000
     31 H31         -2.9916   1.4133   1.1599 H              1 <1>                0.0000
     32 H32         -1.1345   0.3713   2.3867 H              1 <1>                0.0000
     33 H33         -2.5071   1.0965  -3.4533 H              1 <1>                0.0000
     34 H34         -4.3722   2.1361  -4.6741 H              1 <1>                0.0000
     35 H35         -6.2186   3.1941  -3.4397 H              1 <1>                0.0000
     36 H36         -4.3538   2.1771   0.2594 H              1 <1>                0.0000
@<TRIPOS>BOND
    1    1    2 ar    
    2    2    3 ar    
    3    2    4 1     
    4    4    5 1     
    5    4   24 1     
    6    4   25 1     
    7    5    6 1     
    8    5   26 1     
    9    5   27 1     
   10    6   10 1     
   11    6    7 2     
   12    7    8 1     
   13    7   28 1     
   14    8    9 2     
   15    8   11 1     
   16    9   10 1     
   17   11   16 ar    
   18   11   12 ar    
   19   12   13 ar    
   20   12   29 1     
   21   13   14 ar    
   22   13   30 1     
   23   14   15 ar    
   24   14   17 1     
   25   15   16 ar    
   26   15   31 1     
   27   16   32 1     
   28   17   23 ar    
   29   17   18 ar    
   30   18   19 ar    
   31   18   33 1     
   32   19   20 ar    
   33   19   34 1     
   34   20   21 ar    
   35   20   35 1     
   36   21   22 1     
   37   21   23 ar    
   38   23   36 1     
@<TRIPOS>SUBSTRUCTURE
      1 ****           1
