#       Name:                0ZC
#       Creating user name   gbret
#       Creation time:       Thu Sep  8 19:31:26 2016


#       File generated by GOLD software.
#

@<TRIPOS>MOLECULE
0ZC
    55    58     1
SMALL
NO_CHARGES


@<TRIPOS>ATOM
      1 C1          -1.8640   3.1975   2.8359 C.3            1 <1>                0.0000
      2 C2          -1.3058   1.8150   2.4924 C.3            1 <1>                0.0000
      3 C3          -2.4343   0.9254   1.9671 C.3            1 <1>                0.0000
      4 C4          -0.2242   1.9540   1.4192 C.3            1 <1>                0.0000
      5 C5           0.5103   0.6214   1.2597 C.3            1 <1>                0.0000
      6 N6           1.0245   0.1884   2.5614 N.am           1 <1>                0.0000
      7 C7           2.2386   0.6004   2.9771 C.2            1 <1>                0.0000
      8 O8           2.8686   1.4033   2.3143 O.2            1 <1>                0.0000
      9 C9           2.8003   0.0811   4.2284 C.2            1 <1>                0.0000
     10 C10          4.0101   0.4169   4.7651 C.2            1 <1>                0.0000
     11 C11          4.1387  -0.3117   5.9579 C.2            1 <1>                0.0000
     12 C12          3.0159  -1.0509   6.0953 C.2            1 <1>                0.0000
     13 O13          2.2097  -0.8078   5.0538 O.3            1 <1>                0.0000
     14 C14         -0.4428  -0.4167   0.7256 C.2            1 <1>                0.0000
     15 O15         -0.7634  -1.3591   1.4184 O.2            1 <1>                0.0000
     16 N16         -0.9387  -0.2978  -0.5219 N.am           1 <1>                0.0000
     17 C17         -0.4725   0.7714  -1.4214 C.3            1 <1>                0.0000
     18 C18         -0.2371   0.1515  -2.7806 C.2            1 <1>                0.0000
     19 N19          0.4003   0.7333  -3.8439 N.pl3          1 <1>                0.0000
     20 H20          0.7826   1.6248  -3.8457 H              1 <1>                0.0000
     21 C21          0.4164  -0.1306  -4.9008 C.ar           1 <1>                0.0000
     22 C22          0.9343  -0.0205  -6.1898 C.ar           1 <1>                0.0000
     23 C23          0.7716  -1.1114  -7.0259 C.ar           1 <1>                0.0000
     24 C24          0.1261  -2.2668  -6.6166 C.ar           1 <1>                0.0000
     25 C25         -0.3936  -2.4036  -5.3531 C.ar           1 <1>                0.0000
     26 C26         -0.2421  -1.3167  -4.4866 C.ar           1 <1>                0.0000
     27 C27         -0.6442  -1.0928  -3.1126 C.2            1 <1>                0.0000
     28 C28         -1.3719  -2.0347  -2.1877 C.3            1 <1>                0.0000
     29 C29         -1.9548  -1.2360  -1.0221 C.3            1 <1>                0.0000
     30 C30         -2.3597  -2.1779   0.0824 C.2            1 <1>                0.0000
     31 O31         -1.6511  -3.1299   0.3620 O.co2          1 <1>                0.0000
     32 O32         -3.3958  -1.9880   0.6963 O.co2          1 <1>                0.0000
     33 H33         -2.6345   3.0985   3.6006 H              1 <1>                0.0000
     34 H34         -1.0600   3.8313   3.2102 H              1 <1>                0.0000
     35 H35         -2.2952   3.6477   1.9418 H              1 <1>                0.0000
     36 H36         -0.8746   1.3649   3.3866 H              1 <1>                0.0000
     37 H37         -2.1219  -0.1181   2.0051 H              1 <1>                0.0000
     38 H38         -3.3219   1.0617   2.5849 H              1 <1>                0.0000
     39 H39         -2.6630   1.1990   0.9371 H              1 <1>                0.0000
     40 H40         -0.6863   2.2299   0.4713 H              1 <1>                0.0000
     41 H41          0.4851   2.7266   1.7160 H              1 <1>                0.0000
     42 H42          1.3402   0.7449   0.5640 H              1 <1>                0.0000
     43 H43          0.4913  -0.3947   3.1240 H              1 <1>                0.0000
     44 H44          4.7289   1.1090   4.3518 H              1 <1>                0.0000
     45 H45          4.9774  -0.2864   6.6378 H              1 <1>                0.0000
     46 H46          2.8023  -1.7244   6.9122 H              1 <1>                0.0000
     47 H47         -1.2318   1.5498  -1.4959 H              1 <1>                0.0000
     48 H48          0.4573   1.1952  -1.0418 H              1 <1>                0.0000
     49 H49          1.4397   0.8747  -6.5209 H              1 <1>                0.0000
     50 H50          1.1609  -1.0600  -8.0319 H              1 <1>                0.0000
     51 H51          0.0282  -3.0859  -7.3137 H              1 <1>                0.0000
     52 H52         -0.8958  -3.3081  -5.0431 H              1 <1>                0.0000
     53 H53         -2.1766  -2.5302  -2.7309 H              1 <1>                0.0000
     54 H54         -0.6753  -2.7803  -1.8044 H              1 <1>                0.0000
     55 H55         -2.8252  -0.6754  -1.3631 H              1 <1>                0.0000
@<TRIPOS>BOND
    1    1    2 1     
    2    1   33 1     
    3    1   34 1     
    4    1   35 1     
    5    2    3 1     
    6    2    4 1     
    7    2   36 1     
    8    3   37 1     
    9    3   38 1     
   10    3   39 1     
   11    4    5 1     
   12    4   40 1     
   13    4   41 1     
   14    5    6 1     
   15    5   14 1     
   16    5   42 1     
   17    6    7 am    
   18    6   43 1     
   19    7    8 2     
   20    7    9 1     
   21    9   13 1     
   22    9   10 2     
   23   10   11 1     
   24   10   44 1     
   25   11   12 2     
   26   11   45 1     
   27   12   13 1     
   28   12   46 1     
   29   14   15 2     
   30   14   16 am    
   31   16   29 1     
   32   16   17 1     
   33   17   18 1     
   34   17   47 1     
   35   17   48 1     
   36   18   27 2     
   37   18   19 1     
   38   19   20 1     
   39   19   21 1     
   40   21   26 ar    
   41   21   22 ar    
   42   22   23 ar    
   43   22   49 1     
   44   23   24 ar    
   45   23   50 1     
   46   24   25 ar    
   47   24   51 1     
   48   25   26 ar    
   49   25   52 1     
   50   26   27 1     
   51   27   28 1     
   52   28   29 1     
   53   28   53 1     
   54   28   54 1     
   55   29   30 1     
   56   29   55 1     
   57   30   31 ar    
   58   30   32 ar    
@<TRIPOS>SUBSTRUCTURE
      1 ****           1
@<TRIPOS>SET
DONOR_HYDROGENS      STATIC     ATOMS    <user>   **** ""
2 43 20
ATOM$RED        STATIC     ATOMS    COLORGROUP SYSTEM
2 43 20
