#       Name:                11Q
#       Creating user name   gbret
#       Creation time:       Thu Sep  8 19:36:39 2016


#       File generated by GOLD software.
#

@<TRIPOS>MOLECULE
11Q
    36    37     1
SMALL
NO_CHARGES


@<TRIPOS>ATOM
      1 O1           2.9339  -0.7688  -1.9140 O.co2          1 <1>                0.0000
      2 C2           2.9173   0.4503  -1.9073 C.2            1 <1>                0.0000
      3 O3           3.9648   1.0742  -1.9139 O.co2          1 <1>                0.0000
      4 C4           1.6022   1.1860  -1.8970 C.3            1 <1>                0.0000
      5 C5           1.0675   1.3549  -3.3411 C.3            1 <1>                0.0000
      6 C6          -0.4558   1.5152  -3.0944 C.3            1 <1>                0.0000
      7 C7          -0.7157   0.5730  -1.9002 C.3            1 <1>                0.0000
      8 N8           0.5703   0.3860  -1.2035 N.4            1 <1>                0.0000
      9 H9           0.8277  -0.5895  -1.2219 H              1 <1>                0.0000
     10 C10          0.4492   0.8403   0.1882 C.3            1 <1>                0.0000
     11 C11         -0.5182  -0.0751   0.9412 C.3            1 <1>                0.0000
     12 C12          0.0734  -1.4836   1.0253 C.3            1 <1>                0.0000
     13 C13         -0.8939  -2.3991   1.7782 C.3            1 <1>                0.0000
     14 C14         -1.1167  -1.8544   3.1905 C.3            1 <1>                0.0000
     15 C15         -1.7083  -0.4459   3.1065 C.3            1 <1>                0.0000
     16 C16         -0.7409   0.4696   2.3535 C.3            1 <1>                0.0000
     17 H17          1.7155   2.1578  -1.4164 H              1 <1>                0.0000
     18 H18          1.4832   2.2470  -3.8095 H              1 <1>                0.0000
     19 H19          1.2748   0.4684  -3.9404 H              1 <1>                0.0000
     20 H20         -0.6975   2.5453  -2.8324 H              1 <1>                0.0000
     21 H21         -1.0235   1.1954  -3.9682 H              1 <1>                0.0000
     22 H22         -1.4418   1.0236  -1.2236 H              1 <1>                0.0000
     23 H23         -1.0860  -0.3872  -2.2592 H              1 <1>                0.0000
     24 H24          1.4276   0.8078   0.6675 H              1 <1>                0.0000
     25 H25          0.0701   1.8621   0.2052 H              1 <1>                0.0000
     26 H26         -1.4702  -0.1120   0.4117 H              1 <1>                0.0000
     27 H27          0.2321  -1.8717   0.0191 H              1 <1>                0.0000
     28 H28          1.0255  -1.4468   1.5548 H              1 <1>                0.0000
     29 H29         -1.8459  -2.4359   1.2487 H              1 <1>                0.0000
     30 H30         -0.4724  -3.4025   1.8381 H              1 <1>                0.0000
     31 H31         -1.8059  -2.5065   3.7270 H              1 <1>                0.0000
     32 H32         -0.1647  -1.8175   3.7201 H              1 <1>                0.0000
     33 H33         -2.6603  -0.4827   2.5770 H              1 <1>                0.0000
     34 H34         -1.8670  -0.0578   4.1127 H              1 <1>                0.0000
     35 H35          0.2111   0.5064   2.8831 H              1 <1>                0.0000
     36 H36         -1.1625   1.4730   2.2937 H              1 <1>                0.0000
@<TRIPOS>BOND
    1    1    2 ar    
    2    2    3 ar    
    3    2    4 1     
    4    4    8 1     
    5    4    5 1     
    6    4   17 1     
    7    5    6 1     
    8    5   18 1     
    9    5   19 1     
   10    6    7 1     
   11    6   20 1     
   12    6   21 1     
   13    7    8 1     
   14    7   22 1     
   15    7   23 1     
   16    8    9 1     
   17    8   10 1     
   18   10   11 1     
   19   10   24 1     
   20   10   25 1     
   21   11   16 1     
   22   11   12 1     
   23   11   26 1     
   24   12   13 1     
   25   12   27 1     
   26   12   28 1     
   27   13   14 1     
   28   13   29 1     
   29   13   30 1     
   30   14   15 1     
   31   14   31 1     
   32   14   32 1     
   33   15   16 1     
   34   15   33 1     
   35   15   34 1     
   36   16   35 1     
   37   16   36 1     
@<TRIPOS>SUBSTRUCTURE
      1 ****           1
@<TRIPOS>SET
DONOR_HYDROGENS      STATIC     ATOMS    <user>   **** ""
1 9
ATOM$RED        STATIC     ATOMS    COLORGROUP SYSTEM
1 9
