#       Name:                14H
#       Creating user name   gbret
#       Creation time:       Thu Sep  8 19:43:01 2016


#       File generated by GOLD software.
#

@<TRIPOS>MOLECULE
14H
    69    69     1
SMALL
NO_CHARGES


@<TRIPOS>ATOM
      1 C1          -3.2953  10.3886  -6.3551 C.3            1 <1>                0.0000
      2 C2          -3.2745   8.8587  -6.3635 C.3            1 <1>                0.0000
      3 C3          -2.5345   8.3519  -5.1240 C.3            1 <1>                0.0000
      4 C4          -2.5138   6.8221  -5.1324 C.3            1 <1>                0.0000
      5 C5          -1.7738   6.3152  -3.8928 C.3            1 <1>                0.0000
      6 C6          -1.7530   4.7854  -3.9013 C.3            1 <1>                0.0000
      7 C7          -1.0130   4.2786  -2.6617 C.3            1 <1>                0.0000
      8 C8          -0.9923   2.7487  -2.6701 C.3            1 <1>                0.0000
      9 C9          -0.2523   2.2419  -1.4306 C.3            1 <1>                0.0000
     10 C10         -0.2316   0.7120  -1.4390 C.3            1 <1>                0.0000
     11 C11          0.5084   0.2052  -0.1995 C.3            1 <1>                0.0000
     12 C12          0.5292  -1.3246  -0.2079 C.3            1 <1>                0.0000
     13 C13          1.2692  -1.8315   1.0316 C.3            1 <1>                0.0000
     14 C14          1.2896  -3.3383   1.0233 C.2            1 <1>                0.0000
     15 O15          0.7641  -3.9469   0.1154 O.2            1 <1>                0.0000
     16 N16          1.8919  -4.0096   2.0249 N.am           1 <1>                0.0000
     17 C17          1.9118  -5.4744   2.0168 C.3            1 <1>                0.0000
     18 C18          3.0923  -5.9639   1.1755 C.3            1 <1>                0.0000
     19 O19          4.3167  -5.5726   1.7997 O.3            1 <1>                0.0000
     20 C20          2.0581  -5.9904   3.4497 C.3            1 <1>                0.0000
     21 C21          0.8176  -5.6069   4.2591 C.3            1 <1>                0.0000
     22 O22         -0.3246  -6.2823   3.7289 O.3            1 <1>                0.0000
     23 C23          1.0140  -6.0063   5.6988 C.ar           1 <1>                0.0000
     24 C24          0.8230  -7.3201   6.0838 C.ar           1 <1>                0.0000
     25 C25          1.0031  -7.6865   7.4045 C.ar           1 <1>                0.0000
     26 C26          1.3745  -6.7391   8.3401 C.ar           1 <1>                0.0000
     27 C27          1.5663  -5.4254   7.9550 C.ar           1 <1>                0.0000
     28 C28          1.3904  -5.0599   6.6335 C.ar           1 <1>                0.0000
     29 H29         -2.2727  10.7659  -6.3628 H              1 <1>                0.0000
     30 H30         -3.8225  10.7496  -7.2381 H              1 <1>                0.0000
     31 H31         -3.8055  10.7401  -5.4583 H              1 <1>                0.0000
     32 H32         -4.2971   8.4814  -6.3557 H              1 <1>                0.0000
     33 H33         -2.7643   8.5072  -7.2603 H              1 <1>                0.0000
     34 H34         -1.5119   8.7292  -5.1317 H              1 <1>                0.0000
     35 H35         -3.0447   8.7034  -4.2272 H              1 <1>                0.0000
     36 H36         -3.5364   6.4448  -5.1246 H              1 <1>                0.0000
     37 H37         -2.0036   6.4705  -6.0292 H              1 <1>                0.0000
     38 H38         -0.7512   6.6925  -3.9006 H              1 <1>                0.0000
     39 H39         -2.2840   6.6667  -2.9960 H              1 <1>                0.0000
     40 H40         -2.7756   4.4081  -3.8935 H              1 <1>                0.0000
     41 H41         -1.2429   4.4339  -4.7980 H              1 <1>                0.0000
     42 H42          0.0095   4.6558  -2.6695 H              1 <1>                0.0000
     43 H43         -1.5232   4.6301  -1.7649 H              1 <1>                0.0000
     44 H44         -2.0149   2.3714  -2.6624 H              1 <1>                0.0000
     45 H45         -0.4821   2.3972  -3.5669 H              1 <1>                0.0000
     46 H46          0.7703   2.6192  -1.4384 H              1 <1>                0.0000
     47 H47         -0.7625   2.5934  -0.5338 H              1 <1>                0.0000
     48 H48         -1.2542   0.3348  -1.4313 H              1 <1>                0.0000
     49 H49          0.2786   0.3605  -2.3358 H              1 <1>                0.0000
     50 H50          1.5310   0.5825  -0.2072 H              1 <1>                0.0000
     51 H51         -0.0018   0.5567   0.6973 H              1 <1>                0.0000
     52 H52         -0.4934  -1.7019  -0.2002 H              1 <1>                0.0000
     53 H53          1.0394  -1.6761  -1.1047 H              1 <1>                0.0000
     54 H54          2.2918  -1.4542   1.0239 H              1 <1>                0.0000
     55 H55          0.7590  -1.4799   1.9284 H              1 <1>                0.0000
     56 H56          2.3123  -3.5228   2.7510 H              1 <1>                0.0000
     57 H57          0.9813  -5.8481   1.5893 H              1 <1>                0.0000
     58 H58          3.0560  -7.0503   1.0959 H              1 <1>                0.0000
     59 H59          3.0355  -5.5245   0.1796 H              1 <1>                0.0000
     60 H60          5.1091  -5.8501   1.3198 H              1 <1>                0.0000
     61 H61          2.1621  -7.0753   3.4364 H              1 <1>                0.0000
     62 H62          2.9421  -5.5462   3.9073 H              1 <1>                0.0000
     63 H63          0.6632  -4.5296   4.1987 H              1 <1>                0.0000
     64 H64         -0.2566  -7.2466   3.7507 H              1 <1>                0.0000
     65 H65          0.5328  -8.0603   5.3529 H              1 <1>                0.0000
     66 H66          0.8532  -8.7128   7.7054 H              1 <1>                0.0000
     67 H67          1.5145  -7.0252   9.3721 H              1 <1>                0.0000
     68 H68          1.8562  -4.6852   8.6860 H              1 <1>                0.0000
     69 H69          1.5403  -4.0335   6.3326 H              1 <1>                0.0000
@<TRIPOS>BOND
    1    1    2 1     
    2    1   29 1     
    3    1   30 1     
    4    1   31 1     
    5    2    3 1     
    6    2   32 1     
    7    2   33 1     
    8    3    4 1     
    9    3   34 1     
   10    3   35 1     
   11    4    5 1     
   12    4   36 1     
   13    4   37 1     
   14    5    6 1     
   15    5   38 1     
   16    5   39 1     
   17    6    7 1     
   18    6   40 1     
   19    6   41 1     
   20    7    8 1     
   21    7   42 1     
   22    7   43 1     
   23    8    9 1     
   24    8   44 1     
   25    8   45 1     
   26    9   10 1     
   27    9   46 1     
   28    9   47 1     
   29   10   11 1     
   30   10   48 1     
   31   10   49 1     
   32   11   12 1     
   33   11   50 1     
   34   11   51 1     
   35   12   13 1     
   36   12   52 1     
   37   12   53 1     
   38   13   14 1     
   39   13   54 1     
   40   13   55 1     
   41   14   15 2     
   42   14   16 am    
   43   16   17 1     
   44   16   56 1     
   45   17   18 1     
   46   17   20 1     
   47   17   57 1     
   48   18   19 1     
   49   18   58 1     
   50   18   59 1     
   51   19   60 1     
   52   20   21 1     
   53   20   61 1     
   54   20   62 1     
   55   21   22 1     
   56   21   23 1     
   57   21   63 1     
   58   22   64 1     
   59   23   28 ar    
   60   23   24 ar    
   61   24   25 ar    
   62   24   65 1     
   63   25   26 ar    
   64   25   66 1     
   65   26   27 ar    
   66   26   67 1     
   67   27   28 ar    
   68   27   68 1     
   69   28   69 1     
@<TRIPOS>SUBSTRUCTURE
      1 ****           1
@<TRIPOS>SET
DONOR_HYDROGENS      STATIC     ATOMS    <user>   **** ""
3 56 60 64
ATOM$RED        STATIC     ATOMS    COLORGROUP SYSTEM
3 56 60 64
