#       Name:                14Z
#       Creating user name   gbret
#       Creation time:       Thu Sep  8 19:44:12 2016


#       File generated by GOLD software.
#

@<TRIPOS>MOLECULE
14Z
    33    34     1
SMALL
NO_CHARGES


@<TRIPOS>ATOM
      1 C1           1.6026   4.5711   1.7849 C.3            1 <1>                0.0000
      2 C2           1.6234   3.0412   1.7765 C.3            1 <1>                0.0000
      3 N3           2.3091   2.5688   0.5712 N.pl3          1 <1>                0.0000
      4 S4           2.8105   0.9939   0.4674 S.o2           1 <1>                0.0000
      5 O5           3.3997   0.8443  -0.8170 O.2            1 <1>                0.0000
      6 O6           3.5011   0.7121   1.6769 O.2            1 <1>                0.0000
      7 C7           1.3659  -0.0148   0.4726 C.ar           1 <1>                0.0000
      8 C8           0.8445  -0.4691   1.6703 C.ar           1 <1>                0.0000
      9 C9          -0.2876  -1.2603   1.6833 C.ar           1 <1>                0.0000
     10 C10         -0.9060  -1.6012   0.4876 C.ar           1 <1>                0.0000
     11 N11         -2.0501  -2.3997   0.4793 N.am           1 <1>                0.0000
     12 C12         -2.6817  -2.7561  -0.6464 C.2            1 <1>                0.0000
     13 O13         -3.6727  -3.4550  -0.5585 O.2            1 <1>                0.0000
     14 N14         -2.2711  -2.3767  -1.8701 N.am           1 <1>                0.0000
     15 C15         -3.0071  -2.8004  -3.0639 C.3            1 <1>                0.0000
     16 C16         -1.0726  -1.5297  -1.9946 C.3            1 <1>                0.0000
     17 C17         -0.3751  -1.1395  -0.7119 C.ar           1 <1>                0.0000
     18 C18          0.7499  -0.3476  -0.7220 C.ar           1 <1>                0.0000
     19 H19          2.6252   4.9484   1.7772 H              1 <1>                0.0000
     20 H20          1.0754   4.9321   0.9019 H              1 <1>                0.0000
     21 H21          1.0924   4.9226   2.6817 H              1 <1>                0.0000
     22 H22          2.1506   2.6802   2.6596 H              1 <1>                0.0000
     23 H23          0.6008   2.6639   1.7843 H              1 <1>                0.0000
     24 H24          2.4694   3.1784  -0.1661 H              1 <1>                0.0000
     25 H25          1.3253  -0.2041   2.6004 H              1 <1>                0.0000
     26 H26         -0.6907  -1.6133   2.6210 H              1 <1>                0.0000
     27 H27         -2.4038  -2.7109   1.3272 H              1 <1>                0.0000
     28 H28         -3.8564  -3.4161  -2.7676 H              1 <1>                0.0000
     29 H29         -3.3648  -1.9220  -3.6010 H              1 <1>                0.0000
     30 H30         -2.3476  -3.3785  -3.7112 H              1 <1>                0.0000
     31 H31         -0.3529  -2.0556  -2.6218 H              1 <1>                0.0000
     32 H32         -1.3599  -0.6149  -2.5131 H              1 <1>                0.0000
     33 H33          1.1529   0.0101  -1.6580 H              1 <1>                0.0000
@<TRIPOS>BOND
    1    1    2 1     
    2    1   19 1     
    3    1   20 1     
    4    1   21 1     
    5    2    3 1     
    6    2   22 1     
    7    2   23 1     
    8    3    4 1     
    9    3   24 1     
   10    4    5 2     
   11    4    6 2     
   12    4    7 1     
   13    7   18 ar    
   14    7    8 ar    
   15    8    9 ar    
   16    8   25 1     
   17    9   10 ar    
   18    9   26 1     
   19   10   17 ar    
   20   10   11 1     
   21   11   12 am    
   22   11   27 1     
   23   12   13 2     
   24   12   14 am    
   25   14   15 1     
   26   14   16 1     
   27   15   28 1     
   28   15   29 1     
   29   15   30 1     
   30   16   17 1     
   31   16   31 1     
   32   16   32 1     
   33   17   18 ar    
   34   18   33 1     
@<TRIPOS>SUBSTRUCTURE
      1 ****           1
@<TRIPOS>SET
DONOR_HYDROGENS      STATIC     ATOMS    <user>   **** ""
2 24 27
ATOM$RED        STATIC     ATOMS    COLORGROUP SYSTEM
2 24 27
