#       Name:                15Q
#       Creating user name   gbret
#       Creation time:       Thu Sep  8 19:45:50 2016


#       File generated by GOLD software.
#

@<TRIPOS>MOLECULE
15Q
    28    29     1
SMALL
NO_CHARGES


@<TRIPOS>ATOM
      1 O1           2.5374   5.2367   0.0082 O.3            1 <1>                0.0000
      2 N2           2.5566   3.8208   0.0004 N.2            1 <1>                0.0000
      3 C3           1.4447   3.1586   0.0075 C.2            1 <1>                0.0000
      4 C4           1.4647   1.6841  -0.0006 C.ar           1 <1>                0.0000
      5 C5           2.6867   0.9968  -0.0102 C.ar           1 <1>                0.0000
      6 O6           3.8548   1.6885  -0.0115 O.3            1 <1>                0.0000
      7 C7           2.7018  -0.3894  -0.0178 C.ar           1 <1>                0.0000
      8 C8           1.5175  -1.0974  -0.0166 C.ar           1 <1>                0.0000
      9 C9           0.2959  -0.4244  -0.0075 C.ar           1 <1>                0.0000
     10 C10          0.2677   0.9673   0.0069 C.ar           1 <1>                0.0000
     11 Cl11        -1.2512   1.8080   0.0183 Cl             1 <1>                0.0000
     12 C12         -0.9737  -1.1919  -0.0072 C.ar           1 <1>                0.0000
     13 C13         -1.9709  -0.8914   0.9190 C.ar           1 <1>                0.0000
     14 C14         -3.1508  -1.6063   0.9178 C.ar           1 <1>                0.0000
     15 C15         -3.3464  -2.6244  -0.0044 C.ar           1 <1>                0.0000
     16 O16         -4.5103  -3.3268  -0.0028 O.3            1 <1>                0.0000
     17 C17         -2.3547  -2.9270  -0.9301 C.ar           1 <1>                0.0000
     18 F18         -2.5482  -3.9185  -1.8271 F              1 <1>                0.0000
     19 C19         -1.1737  -2.2109  -0.9367 C.ar           1 <1>                0.0000
     20 H20          3.4153   5.6420   0.0020 H              1 <1>                0.0000
     21 H21          0.5022   3.6858   0.0193 H              1 <1>                0.0000
     22 H22          4.1973   1.8838   0.8715 H              1 <1>                0.0000
     23 H23          3.6440  -0.9171  -0.0252 H              1 <1>                0.0000
     24 H24          1.5365  -2.1773  -0.0229 H              1 <1>                0.0000
     25 H25         -1.8198  -0.0995   1.6377 H              1 <1>                0.0000
     26 H26         -3.9231  -1.3734   1.6359 H              1 <1>                0.0000
     27 H27         -5.1980  -2.9498  -0.5685 H              1 <1>                0.0000
     28 H28         -0.4029  -2.4458  -1.6558 H              1 <1>                0.0000
@<TRIPOS>BOND
    1    1    2 1     
    2    1   20 1     
    3    2    3 2     
    4    3    4 1     
    5    3   21 1     
    6    4   10 ar    
    7    4    5 ar    
    8    5    6 1     
    9    5    7 ar    
   10    6   22 1     
   11    7    8 ar    
   12    7   23 1     
   13    8    9 ar    
   14    8   24 1     
   15    9   10 ar    
   16    9   12 1     
   17   10   11 1     
   18   12   19 ar    
   19   12   13 ar    
   20   13   14 ar    
   21   13   25 1     
   22   14   15 ar    
   23   14   26 1     
   24   15   16 1     
   25   15   17 ar    
   26   16   27 1     
   27   17   18 1     
   28   17   19 ar    
   29   19   28 1     
@<TRIPOS>SUBSTRUCTURE
      1 ****           1
@<TRIPOS>SET
DONOR_HYDROGENS      STATIC     ATOMS    <user>   **** ""
3 20 22 27
ATOM$RED        STATIC     ATOMS    COLORGROUP SYSTEM
3 20 22 27
