#       Name:                164
#       Creating user name   gbret
#       Creation time:       Thu Sep  8 19:46:50 2016


#       File generated by GOLD software.
#

@<TRIPOS>MOLECULE
164
    27    27     1
SMALL
NO_CHARGES


@<TRIPOS>ATOM
      1 O1           1.9441   2.9196   0.2590 O.3            1 <1>                0.0000
      2 C2           1.9635   1.4907   0.2511 C.3            1 <1>                0.0000
      3 C3           2.7048   0.9948   1.4635 C.2            1 <1>                0.0000
      4 C4           2.4607  -0.2227   1.9543 C.2            1 <1>                0.0000
      5 C5           1.4644  -1.0788   1.3125 C.2            1 <1>                0.0000
      6 C6           0.5315  -0.5236   0.4961 C.2            1 <1>                0.0000
      7 C7           0.5291   0.9643   0.2620 C.3            1 <1>                0.0000
      8 C8          -0.2450   1.6431   1.3625 C.2            1 <1>                0.0000
      9 O9          -0.7474   0.9793   2.2533 O.co2          1 <1>                0.0000
     10 O10         -0.3689   2.8560   1.3621 O.co2          1 <1>                0.0000
     11 C11         -0.4312  -1.3376  -0.1306 C.2            1 <1>                0.0000
     12 O12         -0.4280  -2.5374   0.0586 O.2            1 <1>                0.0000
     13 C13         -1.4656  -0.7203  -1.0361 C.3            1 <1>                0.0000
     14 C14         -2.3829  -1.8156  -1.5835 C.3            1 <1>                0.0000
     15 C15         -3.4174  -1.1983  -2.4891 C.2            1 <1>                0.0000
     16 O16         -3.4205   0.0061  -2.6790 O.co2          1 <1>                0.0000
     17 O17         -4.2510  -1.9032  -3.0318 O.co2          1 <1>                0.0000
     18 H18          2.8220   3.3249   0.2528 H              1 <1>                0.0000
     19 H19          2.4701   1.1410  -0.6484 H              1 <1>                0.0000
     20 H20          3.4392   1.6278   1.9393 H              1 <1>                0.0000
     21 H21          2.9980  -0.5742   2.8227 H              1 <1>                0.0000
     22 H22          1.4703  -2.1447   1.4859 H              1 <1>                0.0000
     23 H23          0.0571   1.1793  -0.6968 H              1 <1>                0.0000
     24 H24         -2.0573   0.0014  -0.4729 H              1 <1>                0.0000
     25 H25         -0.9685  -0.2152  -1.8643 H              1 <1>                0.0000
     26 H26         -1.7912  -2.5372  -2.1468 H              1 <1>                0.0000
     27 H27         -2.8800  -2.3207  -0.7554 H              1 <1>                0.0000
@<TRIPOS>BOND
    1    1    2 1     
    2    1   18 1     
    3    2    7 1     
    4    2    3 1     
    5    2   19 1     
    6    3    4 2     
    7    3   20 1     
    8    4    5 1     
    9    4   21 1     
   10    5    6 2     
   11    5   22 1     
   12    6    7 1     
   13    6   11 1     
   14    7    8 1     
   15    7   23 1     
   16    8    9 ar    
   17    8   10 ar    
   18   11   12 2     
   19   11   13 1     
   20   13   14 1     
   21   13   24 1     
   22   13   25 1     
   23   14   15 1     
   24   14   26 1     
   25   14   27 1     
   26   15   16 ar    
   27   15   17 ar    
@<TRIPOS>SUBSTRUCTURE
      1 ****           1
@<TRIPOS>SET
DONOR_HYDROGENS      STATIC     ATOMS    <user>   **** ""
1 18
ATOM$RED        STATIC     ATOMS    COLORGROUP SYSTEM
1 18
