#       Name:                17F
#       Creating user name   gbret
#       Creation time:       Thu Sep  8 19:49:54 2016


#       File generated by GOLD software.
#

@<TRIPOS>MOLECULE
17F
   131   130     1
SMALL
NO_CHARGES


@<TRIPOS>ATOM
      1 C1          17.5793   8.8104   4.0569 C.3            1 <1>                0.0000
      2 C2          17.6001   7.2805   4.0485 C.3            1 <1>                0.0000
      3 C3          16.1647   6.7510   4.0594 C.3            1 <1>                0.0000
      4 C4          16.1854   5.2211   4.0510 C.3            1 <1>                0.0000
      5 C5          14.7501   4.6915   4.0618 C.3            1 <1>                0.0000
      6 C6          14.7708   3.1617   4.0534 C.3            1 <1>                0.0000
      7 C7          13.3354   2.6321   4.0643 C.3            1 <1>                0.0000
      8 C8          13.3562   1.1023   4.0559 C.3            1 <1>                0.0000
      9 C9          11.9424   0.5807   4.0666 C.2            1 <1>                0.0000
     10 C10         11.5442  -0.2516   3.1365 C.2            1 <1>                0.0000
     11 C11         10.1304  -0.7732   3.1472 C.3            1 <1>                0.0000
     12 C12          9.4682  -0.4796   1.7995 C.3            1 <1>                0.0000
     13 C13          8.0329  -1.0091   1.8104 C.3            1 <1>                0.0000
     14 C14          7.3707  -0.7155   0.4627 C.3            1 <1>                0.0000
     15 C15          5.9353  -1.2451   0.4736 C.3            1 <1>                0.0000
     16 C16          5.2732  -0.9515  -0.8741 C.3            1 <1>                0.0000
     17 C17          3.8378  -1.4811  -0.8633 C.3            1 <1>                0.0000
     18 C18          3.1856  -1.1919  -2.1907 C.2            1 <1>                0.0000
     19 O19          3.8053  -0.6208  -3.0566 O.2            1 <1>                0.0000
     20 O20          1.9163  -1.5687  -2.4111 O.3            1 <1>                0.0000
     21 C21          1.3528  -1.2574  -3.7126 C.3            1 <1>                0.0000
     22 C22         -0.0908  -1.7602  -3.7767 C.3            1 <1>                0.0000
     23 C23         -0.1270  -3.2516  -3.4372 C.3            1 <1>                0.0000
     24 O24          0.4954  -3.4666  -2.1689 O.3            1 <1>                0.0000
     25 P25          0.6355  -4.9228  -1.4966 P.3            1 <1>                0.0000
     26 O26         -0.7692  -5.4749  -1.1665 O.co2          1 <1>                0.0000
     27 O27          1.3462  -5.8783  -2.4809 O.co2          1 <1>                0.0000
     28 O28          1.4987  -4.8078  -0.1424 O.3            1 <1>                0.0000
     29 C29          1.8875  -5.9444   0.6316 C.3            1 <1>                0.0000
     30 C30          2.6936  -5.4821   1.8470 C.3            1 <1>                0.0000
     31 N31          1.8326  -4.6857   2.7315 N.4            1 <1>                0.0000
     32 H32          2.3643  -4.3808   3.5331 H              1 <1>                0.0000
     33 H33          1.4886  -3.8805   2.2302 H              1 <1>                0.0000
     34 H34          1.0537  -5.2486   3.0389 H              1 <1>                0.0000
     35 C35          3.2075  -6.6847   2.5959 C.2            1 <1>                0.0000
     36 O36          4.0823  -7.3792   2.1070 O.co2          1 <1>                0.0000
     37 O37          2.7485  -6.9631   3.6906 O.co2          1 <1>                0.0000
     38 O38         -0.9018  -1.0265  -2.8215 O.3            1 <1>                0.0000
     39 C39         -2.1978  -0.8561  -3.1264 C.2            1 <1>                0.0000
     40 O40         -2.6400  -1.3051  -4.1573 O.2            1 <1>                0.0000
     41 C41         -3.1013  -0.1047  -2.1830 C.3            1 <1>                0.0000
     42 C42         -4.5161  -0.0541  -2.7634 C.3            1 <1>                0.0000
     43 C43         -5.4334   0.7087  -1.8055 C.3            1 <1>                0.0000
     44 C44         -6.8481   0.7592  -2.3860 C.3            1 <1>                0.0000
     45 C45         -7.7654   1.5221  -1.4281 C.3            1 <1>                0.0000
     46 C46         -9.1801   1.5726  -2.0086 C.3            1 <1>                0.0000
     47 C47        -10.0974   2.3354  -1.0507 C.3            1 <1>                0.0000
     48 C48        -11.4909   2.3852  -1.6224 C.2            1 <1>                0.0000
     49 C49        -12.5044   1.9486  -0.9166 C.2            1 <1>                0.0000
     50 C50        -13.8979   1.9983  -1.4883 C.3            1 <1>                0.0000
     51 C51        -14.5187   0.6007  -1.4413 C.3            1 <1>                0.0000
     52 C52        -15.9334   0.6513  -2.0217 C.3            1 <1>                0.0000
     53 C53        -16.5542  -0.7463  -1.9746 C.3            1 <1>                0.0000
     54 C54        -17.9689  -0.6958  -2.5551 C.3            1 <1>                0.0000
     55 C55        -18.5897  -2.0934  -2.5080 C.3            1 <1>                0.0000
     56 C56        -20.0045  -2.0428  -3.0884 C.3            1 <1>                0.0000
     57 C57        -20.6253  -3.4404  -3.0414 C.3            1 <1>                0.0000
     58 H58         18.6019   9.1877   4.0492 H              1 <1>                0.0000
     59 H59         17.0521   9.1714   3.1739 H              1 <1>                0.0000
     60 H60         17.0691   9.1619   4.9537 H              1 <1>                0.0000
     61 H61         18.1103   6.9290   3.1517 H              1 <1>                0.0000
     62 H62         18.1273   6.9195   4.9316 H              1 <1>                0.0000
     63 H63         15.6545   7.1025   4.9562 H              1 <1>                0.0000
     64 H64         15.6375   7.1120   3.1763 H              1 <1>                0.0000
     65 H65         16.6956   4.8696   3.1542 H              1 <1>                0.0000
     66 H66         16.7126   4.8600   4.9340 H              1 <1>                0.0000
     67 H67         14.2399   5.0431   4.9586 H              1 <1>                0.0000
     68 H68         14.2229   5.0526   3.1788 H              1 <1>                0.0000
     69 H69         15.2810   2.8102   3.1566 H              1 <1>                0.0000
     70 H70         15.2980   2.8006   4.9365 H              1 <1>                0.0000
     71 H71         12.8252   2.9836   4.9611 H              1 <1>                0.0000
     72 H72         12.8082   2.9932   3.1812 H              1 <1>                0.0000
     73 H73         13.8664   0.7508   3.1591 H              1 <1>                0.0000
     74 H74         13.8834   0.7412   4.9389 H              1 <1>                0.0000
     75 H75         11.2574   0.8929   4.8410 H              1 <1>                0.0000
     76 H76         12.2291  -0.5638   2.3621 H              1 <1>                0.0000
     77 H77         10.1415  -1.8494   3.3198 H              1 <1>                0.0000
     78 H78          9.5684  -0.2834   3.9425 H              1 <1>                0.0000
     79 H79          9.4572   0.5966   1.6269 H              1 <1>                0.0000
     80 H80         10.0302  -0.9693   1.0042 H              1 <1>                0.0000
     81 H81          8.0439  -2.0853   1.9830 H              1 <1>                0.0000
     82 H82          7.4709  -0.5194   2.6057 H              1 <1>                0.0000
     83 H83          7.3596   0.3607   0.2901 H              1 <1>                0.0000
     84 H84          7.9327  -1.2053  -0.3326 H              1 <1>                0.0000
     85 H85          5.9464  -2.3213   0.6461 H              1 <1>                0.0000
     86 H86          5.3734  -0.7554   1.2688 H              1 <1>                0.0000
     87 H87          5.2621   0.1247  -1.0467 H              1 <1>                0.0000
     88 H88          5.8351  -1.4412  -1.6694 H              1 <1>                0.0000
     89 H89          3.8489  -2.5573  -0.6907 H              1 <1>                0.0000
     90 H90          3.2759  -0.9913  -0.0680 H              1 <1>                0.0000
     91 H91          1.3690  -0.1785  -3.8669 H              1 <1>                0.0000
     92 H92          1.9420  -1.7444  -4.4896 H              1 <1>                0.0000
     93 H93         -0.4847  -1.6066  -4.7814 H              1 <1>                0.0000
     94 H94         -1.1624  -3.5898  -3.3958 H              1 <1>                0.0000
     95 H95          0.4078  -3.8119  -4.2040 H              1 <1>                0.0000
     96 H96          0.9977  -6.4771   0.9670 H              1 <1>                0.0000
     97 H97          2.4995  -6.6079   0.0206 H              1 <1>                0.0000
     98 H98          3.5351  -4.8740   1.5150 H              1 <1>                0.0000
     99 H99         -3.1222  -0.6121  -1.2185 H              1 <1>                0.0000
    100 H100        -2.7261   0.9102  -2.0515 H              1 <1>                0.0000
    101 H101        -4.4952   0.4533  -3.7279 H              1 <1>                0.0000
    102 H102        -4.8913  -1.0690  -2.8949 H              1 <1>                0.0000
    103 H103        -5.4543   0.2013  -0.8411 H              1 <1>                0.0000
    104 H104        -5.0581   1.7236  -1.6741 H              1 <1>                0.0000
    105 H105        -6.8272   1.2667  -3.3504 H              1 <1>                0.0000
    106 H106        -7.2233  -0.2557  -2.5175 H              1 <1>                0.0000
    107 H107        -7.7863   1.0146  -0.4637 H              1 <1>                0.0000
    108 H108        -7.3902   2.5370  -1.2966 H              1 <1>                0.0000
    109 H109        -9.1592   2.0800  -2.9730 H              1 <1>                0.0000
    110 H110        -9.5554   0.5577  -2.1400 H              1 <1>                0.0000
    111 H111       -10.1183   1.8280  -0.0862 H              1 <1>                0.0000
    112 H112        -9.7222   3.3503  -0.9192 H              1 <1>                0.0000
    113 H113       -11.6539   2.7809  -2.6140 H              1 <1>                0.0000
    114 H114       -12.3414   1.5529   0.0750 H              1 <1>                0.0000
    115 H115       -14.5069   2.6864  -0.9019 H              1 <1>                0.0000
    116 H116       -13.8545   2.3420  -2.5218 H              1 <1>                0.0000
    117 H117       -13.9097  -0.0873  -2.0277 H              1 <1>                0.0000
    118 H118       -14.5621   0.2571  -0.4078 H              1 <1>                0.0000
    119 H119       -16.5424   1.3393  -1.4353 H              1 <1>                0.0000
    120 H120       -15.8900   0.9950  -3.0552 H              1 <1>                0.0000
    121 H121       -15.9452  -1.4343  -2.5611 H              1 <1>                0.0000
    122 H122       -16.5976  -1.0900  -0.9411 H              1 <1>                0.0000
    123 H123       -18.5779  -0.0078  -1.9686 H              1 <1>                0.0000
    124 H124       -17.9256  -0.3521  -3.5886 H              1 <1>                0.0000
    125 H125       -17.9808  -2.7814  -3.0944 H              1 <1>                0.0000
    126 H126       -18.6331  -2.4371  -1.4745 H              1 <1>                0.0000
    127 H127       -20.6134  -1.3548  -2.5020 H              1 <1>                0.0000
    128 H128       -19.9611  -1.6992  -4.1219 H              1 <1>                0.0000
    129 H129       -20.0163  -4.1285  -3.6278 H              1 <1>                0.0000
    130 H130       -20.6686  -3.7841  -2.0079 H              1 <1>                0.0000
    131 H131       -21.6331  -3.4044  -3.4549 H              1 <1>                0.0000
@<TRIPOS>BOND
    1    1    2 1     
    2    1   58 1     
    3    1   59 1     
    4    1   60 1     
    5    2    3 1     
    6    2   61 1     
    7    2   62 1     
    8    3    4 1     
    9    3   63 1     
   10    3   64 1     
   11    4    5 1     
   12    4   65 1     
   13    4   66 1     
   14    5    6 1     
   15    5   67 1     
   16    5   68 1     
   17    6    7 1     
   18    6   69 1     
   19    6   70 1     
   20    7    8 1     
   21    7   71 1     
   22    7   72 1     
   23    8    9 1     
   24    8   73 1     
   25    8   74 1     
   26    9   10 2     
   27    9   75 1     
   28   10   11 1     
   29   10   76 1     
   30   11   12 1     
   31   11   77 1     
   32   11   78 1     
   33   12   13 1     
   34   12   79 1     
   35   12   80 1     
   36   13   14 1     
   37   13   81 1     
   38   13   82 1     
   39   14   15 1     
   40   14   83 1     
   41   14   84 1     
   42   15   16 1     
   43   15   85 1     
   44   15   86 1     
   45   16   17 1     
   46   16   87 1     
   47   16   88 1     
   48   17   18 1     
   49   17   89 1     
   50   17   90 1     
   51   18   19 2     
   52   18   20 1     
   53   20   21 1     
   54   21   22 1     
   55   21   91 1     
   56   21   92 1     
   57   22   23 1     
   58   22   38 1     
   59   22   93 1     
   60   23   24 1     
   61   23   94 1     
   62   23   95 1     
   63   24   25 1     
   64   25   26 ar    
   65   25   27 ar    
   66   25   28 1     
   67   28   29 1     
   68   29   30 1     
   69   29   96 1     
   70   29   97 1     
   71   30   31 1     
   72   30   35 1     
   73   30   98 1     
   74   31   32 1     
   75   31   33 1     
   76   31   34 1     
   77   35   36 ar    
   78   35   37 ar    
   79   38   39 1     
   80   39   40 2     
   81   39   41 1     
   82   41   42 1     
   83   41   99 1     
   84   41  100 1     
   85   42   43 1     
   86   42  101 1     
   87   42  102 1     
   88   43   44 1     
   89   43  103 1     
   90   43  104 1     
   91   44   45 1     
   92   44  105 1     
   93   44  106 1     
   94   45   46 1     
   95   45  107 1     
   96   45  108 1     
   97   46   47 1     
   98   46  109 1     
   99   46  110 1     
  100   47   48 1     
  101   47  111 1     
  102   47  112 1     
  103   48   49 2     
  104   48  113 1     
  105   49   50 1     
  106   49  114 1     
  107   50   51 1     
  108   50  115 1     
  109   50  116 1     
  110   51   52 1     
  111   51  117 1     
  112   51  118 1     
  113   52   53 1     
  114   52  119 1     
  115   52  120 1     
  116   53   54 1     
  117   53  121 1     
  118   53  122 1     
  119   54   55 1     
  120   54  123 1     
  121   54  124 1     
  122   55   56 1     
  123   55  125 1     
  124   55  126 1     
  125   56   57 1     
  126   56  127 1     
  127   56  128 1     
  128   57  129 1     
  129   57  130 1     
  130   57  131 1     
@<TRIPOS>SUBSTRUCTURE
      1 ****           1
@<TRIPOS>SET
DONOR_HYDROGENS      STATIC     ATOMS    <user>   **** ""
3 32 33 34
ATOM$RED        STATIC     ATOMS    COLORGROUP SYSTEM
3 32 33 34
