#       Name:                17L
#       Creating user name   gbret
#       Creation time:       Thu Sep  8 19:50:18 2016


#       File generated by GOLD software.
#

@<TRIPOS>MOLECULE
17L
    65    69     1
SMALL
NO_CHARGES


@<TRIPOS>ATOM
      1 C1           4.4072   5.6317  -3.1806 C.3            1 <1>                0.0000
      2 C2           4.4529   4.1025  -3.1944 C.3            1 <1>                0.0000
      3 O3           3.1205   3.5860  -3.1837 O.3            1 <1>                0.0000
      4 C4           2.9828   2.2342  -3.1939 C.ar           1 <1>                0.0000
      5 C5           1.7027   1.6709  -3.1901 C.ar           1 <1>                0.0000
      6 C6           1.5327   0.3218  -3.2001 C.ar           1 <1>                0.0000
      7 C7           0.1450  -0.2659  -3.1957 C.3            1 <1>                0.0000
      8 N8          -0.2021  -0.6884  -1.8366 N.am           1 <1>                0.0000
      9 C9          -1.4040  -1.2465  -1.5907 C.2            1 <1>                0.0000
     10 O10         -2.2006  -1.3994  -2.4973 O.2            1 <1>                0.0000
     11 C11         -1.7524  -1.6705  -0.2265 C.ar           1 <1>                0.0000
     12 C12         -2.3894  -0.7754   0.6474 C.ar           1 <1>                0.0000
     13 O13         -2.8021   0.5162   0.4730 O.3            1 <1>                0.0000
     14 C14         -2.8140   1.1154   1.6771 C.2            1 <1>                0.0000
     15 C15         -2.5033   2.2877   2.2364 C.2            1 <1>                0.0000
     16 C16         -2.3784   2.4239   3.6269 C.2            1 <1>                0.0000
     17 O17         -2.1387   3.6483   4.1398 O.co2          1 <1>                0.0000
     18 C18         -2.4938   1.3332   4.5066 C.2            1 <1>                0.0000
     19 C19         -2.1420   1.4862   5.8657 C.2            1 <1>                0.0000
     20 C20         -3.1996   1.3815   6.9342 C.3            1 <1>                0.0000
     21 O21         -0.9871   1.7023   6.1735 O.2            1 <1>                0.0000
     22 C22         -2.9628   0.0787   4.0351 C.2            1 <1>                0.0000
     23 O23         -3.0462  -0.8856   4.7688 O.2            1 <1>                0.0000
     24 C24         -3.3523  -0.0000   2.5815 C.3            1 <1>                0.0000
     25 C25         -4.8748  -0.0852   2.4571 C.3            1 <1>                0.0000
     26 C26         -2.7015  -1.1999   1.9374 C.ar           1 <1>                0.0000
     27 C27         -2.4009  -2.4805   2.3546 C.ar           1 <1>                0.0000
     28 O28         -2.7187  -2.8733   3.6142 O.3            1 <1>                0.0000
     29 C29         -1.7742  -3.3702   1.4889 C.ar           1 <1>                0.0000
     30 C30         -1.4542  -2.9726   0.2029 C.ar           1 <1>                0.0000
     31 O31         -0.8417  -3.8402  -0.6412 O.3            1 <1>                0.0000
     32 C32         -0.5576  -5.1461  -0.1354 C.3            1 <1>                0.0000
     33 C33          2.6567  -0.5225  -3.2150 C.ar           1 <1>                0.0000
     34 C34          2.5173  -1.9208  -3.2261 C.ar           1 <1>                0.0000
     35 C35          3.6272  -2.7085  -3.2408 C.ar           1 <1>                0.0000
     36 C36          4.9039  -2.1495  -3.2450 C.ar           1 <1>                0.0000
     37 C37          5.0778  -0.7998  -3.2345 C.ar           1 <1>                0.0000
     38 C38          3.9551   0.0460  -3.2193 C.ar           1 <1>                0.0000
     39 C39          4.0961   1.4435  -3.2135 C.ar           1 <1>                0.0000
     40 H40          5.4235   6.0257  -3.1887 H              1 <1>                0.0000
     41 H41          3.8727   5.9872  -4.0615 H              1 <1>                0.0000
     42 H42          3.8929   5.9718  -2.2817 H              1 <1>                0.0000
     43 H43          4.9672   3.7624  -4.0933 H              1 <1>                0.0000
     44 H44          4.9874   3.7470  -2.3135 H              1 <1>                0.0000
     45 H45          0.8370   2.3166  -3.1787 H              1 <1>                0.0000
     46 H46         -0.5684   0.4845  -3.5363 H              1 <1>                0.0000
     47 H47          0.1130  -1.1270  -3.8632 H              1 <1>                0.0000
     48 H48          0.4331  -0.5664  -1.1137 H              1 <1>                0.0000
     49 H49         -2.3445   3.1491   1.6046 H              1 <1>                0.0000
     50 H50         -4.1492   1.0998   6.4791 H              1 <1>                0.0000
     51 H51         -2.9070   0.6249   7.6622 H              1 <1>                0.0000
     52 H52         -3.3077   2.3441   7.4340 H              1 <1>                0.0000
     53 H53         -5.3266   0.7948   2.9148 H              1 <1>                0.0000
     54 H54         -5.1514  -0.1294   1.4037 H              1 <1>                0.0000
     55 H55         -5.2312  -0.9819   2.9642 H              1 <1>                0.0000
     56 H56         -3.5992  -3.2652   3.6937 H              1 <1>                0.0000
     57 H57         -1.5412  -4.3718   1.8187 H              1 <1>                0.0000
     58 H58          0.1004  -5.0655   0.7298 H              1 <1>                0.0000
     59 H59         -1.4878  -5.6318   0.1595 H              1 <1>                0.0000
     60 H60         -0.0688  -5.7372  -0.9098 H              1 <1>                0.0000
     61 H61          1.5343  -2.3682  -3.2227 H              1 <1>                0.0000
     62 H62          3.5169  -3.7828  -3.2490 H              1 <1>                0.0000
     63 H63          5.7681  -2.7972  -3.2563 H              1 <1>                0.0000
     64 H64          6.0732  -0.3808  -3.2375 H              1 <1>                0.0000
     65 H65          5.0794   1.8901  -3.2207 H              1 <1>                0.0000
@<TRIPOS>BOND
    1    1    2 1     
    2    1   40 1     
    3    1   41 1     
    4    1   42 1     
    5    2    3 1     
    6    2   43 1     
    7    2   44 1     
    8    3    4 1     
    9    4   39 ar    
   10    4    5 ar    
   11    5    6 ar    
   12    5   45 1     
   13    6    7 1     
   14    6   33 ar    
   15    7    8 1     
   16    7   46 1     
   17    7   47 1     
   18    8    9 am    
   19    8   48 1     
   20    9   10 2     
   21    9   11 1     
   22   11   30 ar    
   23   11   12 ar    
   24   12   26 ar    
   25   12   13 1     
   26   13   14 1     
   27   14   24 1     
   28   14   15 2     
   29   15   16 1     
   30   15   49 1     
   31   16   17 ar    
   32   16   18 2     
   33   18   19 1     
   34   18   22 1     
   35   19   20 1     
   36   19   21 2     
   37   20   50 1     
   38   20   51 1     
   39   20   52 1     
   40   22   23 2     
   41   22   24 1     
   42   24   25 1     
   43   24   26 1     
   44   25   53 1     
   45   25   54 1     
   46   25   55 1     
   47   26   27 ar    
   48   27   28 1     
   49   27   29 ar    
   50   28   56 1     
   51   29   30 ar    
   52   29   57 1     
   53   30   31 1     
   54   31   32 1     
   55   32   58 1     
   56   32   59 1     
   57   32   60 1     
   58   33   38 ar    
   59   33   34 ar    
   60   34   35 ar    
   61   34   61 1     
   62   35   36 ar    
   63   35   62 1     
   64   36   37 ar    
   65   36   63 1     
   66   37   38 ar    
   67   37   64 1     
   68   38   39 ar    
   69   39   65 1     
@<TRIPOS>SUBSTRUCTURE
      1 ****           1
@<TRIPOS>SET
DONOR_HYDROGENS      STATIC     ATOMS    <user>   **** ""
2 48 56
ATOM$RED        STATIC     ATOMS    COLORGROUP SYSTEM
2 48 56
