#       Name:                18S
#       Creating user name   gbret
#       Creation time:       Thu Sep  8 19:53:13 2016


#       File generated by GOLD software.
#

@<TRIPOS>MOLECULE
18S
    45    46     1
SMALL
NO_CHARGES


@<TRIPOS>ATOM
      1 C1          -0.2877  -4.3915  -9.7430 C.3            1 <1>                0.0000
      2 C2          -0.2912  -3.6450  -8.4339 C.ar           1 <1>                0.0000
      3 C3          -0.3103  -2.2614  -8.4302 C.ar           1 <1>                0.0000
      4 C4          -0.3137  -1.5716  -7.2358 C.ar           1 <1>                0.0000
      5 C5          -0.2981  -2.2732  -6.0280 C.ar           1 <1>                0.0000
      6 C6          -0.3020  -1.5427  -4.7467 C.2            1 <1>                0.0000
      7 N7          -0.2874  -2.1974  -3.6266 N.2            1 <1>                0.0000
      8 N8          -0.2912  -1.5034  -2.4095 N.am           1 <1>                0.0000
      9 C9          -0.2761  -2.1835  -1.2460 C.2            1 <1>                0.0000
     10 S10         -0.2523  -3.8953  -1.2555 S.2            1 <1>                0.0000
     11 N11         -0.2797  -1.5161  -0.0752 N.am           1 <1>                0.0000
     12 C12         -0.2632  -2.2554   1.1895 C.3            1 <1>                0.0000
     13 O13          1.0662  -2.2743   1.7132 O.3            1 <1>                0.0000
     14 C14          1.2001  -2.9961   2.9393 C.3            1 <1>                0.0000
     15 C15          2.6627  -2.9730   3.3878 C.3            1 <1>                0.0000
     16 O16          3.4626  -3.6844   2.4412 O.3            1 <1>                0.0000
     17 C17          0.3264  -2.3421   4.0129 C.3            1 <1>                0.0000
     18 O18          0.7771  -1.0063   4.2467 O.3            1 <1>                0.0000
     19 C19         -1.1271  -2.3148   3.5304 C.3            1 <1>                0.0000
     20 O20         -1.9382  -1.6402   4.4943 O.3            1 <1>                0.0000
     21 C21         -1.1957  -1.5716   2.1928 C.3            1 <1>                0.0000
     22 O22         -0.7854  -0.2154   2.3785 O.3            1 <1>                0.0000
     23 C23         -0.2793  -3.6698  -6.0393 C.ar           1 <1>                0.0000
     24 C24         -0.2810  -4.3465  -7.2412 C.ar           1 <1>                0.0000
     25 H25         -1.3144  -4.5814 -10.0557 H              1 <1>                0.0000
     26 H26          0.2181  -3.7933 -10.5010 H              1 <1>                0.0000
     27 H27          0.2357  -5.3395  -9.6193 H              1 <1>                0.0000
     28 H28         -0.3224  -1.7204  -9.3648 H              1 <1>                0.0000
     29 H29         -0.3279  -0.4917  -7.2344 H              1 <1>                0.0000
     30 H30         -0.3170  -0.4628  -4.7410 H              1 <1>                0.0000
     31 H31         -0.3046  -0.5335  -2.4042 H              1 <1>                0.0000
     32 H32         -0.2932  -0.5462  -0.0698 H              1 <1>                0.0000
     33 H33         -0.6010  -3.2774   1.0175 H              1 <1>                0.0000
     34 H34          0.8819  -4.0279   2.7903 H              1 <1>                0.0000
     35 H35          3.0070  -1.9408   3.4515 H              1 <1>                0.0000
     36 H36          2.7503  -3.4462   4.3659 H              1 <1>                0.0000
     37 H37          4.4036  -3.7106   2.6622 H              1 <1>                0.0000
     38 H38          0.3938  -2.9163   4.9369 H              1 <1>                0.0000
     39 H39          0.2674  -0.5310   4.9171 H              1 <1>                0.0000
     40 H40         -1.4875  -3.3354   3.4009 H              1 <1>                0.0000
     41 H41         -2.8730  -1.5859   4.2528 H              1 <1>                0.0000
     42 H42         -2.2178  -1.5954   1.8149 H              1 <1>                0.0000
     43 H43         -0.8044   0.3154   1.5704 H              1 <1>                0.0000
     44 H44         -0.2671  -4.2187  -5.1092 H              1 <1>                0.0000
     45 H45         -0.2668  -5.4264  -7.2516 H              1 <1>                0.0000
@<TRIPOS>BOND
    1    1    2 1     
    2    1   25 1     
    3    1   26 1     
    4    1   27 1     
    5    2   24 ar    
    6    2    3 ar    
    7    3    4 ar    
    8    3   28 1     
    9    4    5 ar    
   10    4   29 1     
   11    5    6 1     
   12    5   23 ar    
   13    6    7 2     
   14    6   30 1     
   15    7    8 1     
   16    8    9 am    
   17    8   31 1     
   18    9   10 2     
   19    9   11 am    
   20   11   12 1     
   21   11   32 1     
   22   12   21 1     
   23   12   13 1     
   24   12   33 1     
   25   13   14 1     
   26   14   15 1     
   27   14   17 1     
   28   14   34 1     
   29   15   16 1     
   30   15   35 1     
   31   15   36 1     
   32   16   37 1     
   33   17   18 1     
   34   17   19 1     
   35   17   38 1     
   36   18   39 1     
   37   19   20 1     
   38   19   21 1     
   39   19   40 1     
   40   20   41 1     
   41   21   22 1     
   42   21   42 1     
   43   22   43 1     
   44   23   24 ar    
   45   23   44 1     
   46   24   45 1     
@<TRIPOS>SUBSTRUCTURE
      1 ****           1
@<TRIPOS>SET
DONOR_HYDROGENS      STATIC     ATOMS    <user>   **** ""
6 31 32 37 39 41 43
ATOM$RED        STATIC     ATOMS    COLORGROUP SYSTEM
6 31 32 37 39 41 43
