#       Name:                19P
#       Creating user name   gbret
#       Creation time:       Thu Sep  8 19:55:31 2016


#       File generated by GOLD software.
#

@<TRIPOS>MOLECULE
19P
    59    63     1
SMALL
NO_CHARGES


@<TRIPOS>ATOM
      1 C1           4.1270   1.4503   3.3111 C.3            1 <1>                0.0000
      2 C2           4.1544  -0.0794   3.2956 C.3            1 <1>                0.0000
      3 O3           4.9457  -0.5527   4.3873 O.3            1 <1>                0.0000
      4 C4           2.7494  -0.6083   3.4272 C.2            1 <1>                0.0000
      5 O5           2.4041  -1.1649   4.4479 O.2            1 <1>                0.0000
      6 N6           1.8765  -0.4628   2.4106 N.am           1 <1>                0.0000
      7 C7           2.3123   0.0979   1.1243 C.3            1 <1>                0.0000
      8 C8           1.3971   1.2720   0.7628 C.3            1 <1>                0.0000
      9 C9          -0.0596   0.8032   0.7830 C.3            1 <1>                0.0000
     10 C10         -0.4232   0.3227   2.1898 C.3            1 <1>                0.0000
     11 C11          0.4726  -0.8674   2.5655 C.3            1 <1>                0.0000
     12 N12         -0.9354   1.9152   0.4055 N.am           1 <1>                0.0000
     13 C13         -1.7994   1.9337  -0.6734 C.ar           1 <1>                0.0000
     14 C14         -2.4370   3.1692  -0.6683 C.ar           1 <1>                0.0000
     15 C15         -3.3743   3.4646  -1.6589 C.ar           1 <1>                0.0000
     16 N16         -3.6690   2.5988  -2.5997 N.ar           1 <1>                0.0000
     17 C17         -3.0912   1.3951  -2.6596 C.ar           1 <1>                0.0000
     18 C18         -3.4252   0.4832  -3.6812 C.ar           1 <1>                0.0000
     19 C19         -2.8058  -0.7309  -3.6961 C.ar           1 <1>                0.0000
     20 C20         -1.8606  -1.0457  -2.7078 C.ar           1 <1>                0.0000
     21 N21         -1.5534  -0.1868  -1.7542 N.ar           1 <1>                0.0000
     22 C22         -2.1286   1.0138  -1.6919 C.ar           1 <1>                0.0000
     23 C23         -1.1940  -2.3700  -2.7353 C.ar           1 <1>                0.0000
     24 C24         -0.3315  -2.7529  -1.7035 C.ar           1 <1>                0.0000
     25 C25          0.2654  -3.9995  -1.7757 C.ar           1 <1>                0.0000
     26 C26         -0.0077  -4.8190  -2.8561 C.ar           1 <1>                0.0000
     27 C27          0.6395  -6.1774  -2.9388 C.3            1 <1>                0.0000
     28 N28         -0.8261  -4.4304  -3.8147 N.ar           1 <1>                0.0000
     29 C29         -1.4215  -3.2556  -3.7869 C.ar           1 <1>                0.0000
     30 N30         -1.9379   3.8728   0.4235 N.am           1 <1>                0.0000
     31 C31         -2.3263   5.2280   0.8219 C.3            1 <1>                0.0000
     32 C32         -1.0400   3.0913   1.0542 C.2            1 <1>                0.0000
     33 O33         -0.4145   3.4024   2.0507 O.2            1 <1>                0.0000
     34 H34          5.1480   1.8320   3.3053 H              1 <1>                0.0000
     35 H35          3.5985   1.8132   2.4295 H              1 <1>                0.0000
     36 H36          3.6151   1.7955   4.2093 H              1 <1>                0.0000
     37 H37          4.5864  -0.4256   2.3567 H              1 <1>                0.0000
     38 H38          4.6191  -0.2820   5.2562 H              1 <1>                0.0000
     39 H39          3.3409   0.4487   1.2083 H              1 <1>                0.0000
     40 H40          2.2471  -0.6677   0.3511 H              1 <1>                0.0000
     41 H41          1.5311   2.0745   1.4883 H              1 <1>                0.0000
     42 H42          1.6485   1.6359  -0.2334 H              1 <1>                0.0000
     43 H43         -0.1873  -0.0158   0.0752 H              1 <1>                0.0000
     44 H44         -0.2720   1.1341   2.9017 H              1 <1>                0.0000
     45 H45         -1.4674   0.0109   2.2091 H              1 <1>                0.0000
     46 H46          0.2551  -1.7101   1.9093 H              1 <1>                0.0000
     47 H47          0.2876  -1.1512   3.6016 H              1 <1>                0.0000
     48 H48         -3.8675   4.4253  -1.6509 H              1 <1>                0.0000
     49 H49         -4.1551   0.7403  -4.4345 H              1 <1>                0.0000
     50 H50         -3.0424  -1.4495  -4.4668 H              1 <1>                0.0000
     51 H51         -0.1359  -2.0926  -0.8716 H              1 <1>                0.0000
     52 H52          0.9375  -4.3287  -0.9971 H              1 <1>                0.0000
     53 H53          0.0028  -6.9137  -2.4483 H              1 <1>                0.0000
     54 H54          0.7739  -6.4527  -3.9849 H              1 <1>                0.0000
     55 H55          1.6098  -6.1483  -2.4432 H              1 <1>                0.0000
     56 H56         -2.0854  -2.9729  -4.5905 H              1 <1>                0.0000
     57 H57         -3.1688   5.1766   1.5116 H              1 <1>                0.0000
     58 H58         -1.4850   5.7179   1.3120 H              1 <1>                0.0000
     59 H59         -2.6142   5.7980  -0.0615 H              1 <1>                0.0000
@<TRIPOS>BOND
    1    1    2 1     
    2    1   34 1     
    3    1   35 1     
    4    1   36 1     
    5    2    3 1     
    6    2    4 1     
    7    2   37 1     
    8    3   38 1     
    9    4    5 2     
   10    4    6 am    
   11    6   11 1     
   12    6    7 1     
   13    7    8 1     
   14    7   39 1     
   15    7   40 1     
   16    8    9 1     
   17    8   41 1     
   18    8   42 1     
   19    9   10 1     
   20    9   12 1     
   21    9   43 1     
   22   10   11 1     
   23   10   44 1     
   24   10   45 1     
   25   11   46 1     
   26   11   47 1     
   27   12   32 am    
   28   12   13 1     
   29   13   22 ar    
   30   13   14 ar    
   31   14   15 ar    
   32   14   30 1     
   33   15   16 ar    
   34   15   48 1     
   35   16   17 ar    
   36   17   22 ar    
   37   17   18 ar    
   38   18   19 ar    
   39   18   49 1     
   40   19   20 ar    
   41   19   50 1     
   42   20   21 ar    
   43   20   23 1     
   44   21   22 ar    
   45   23   29 ar    
   46   23   24 ar    
   47   24   25 ar    
   48   24   51 1     
   49   25   26 ar    
   50   25   52 1     
   51   26   27 1     
   52   26   28 ar    
   53   27   53 1     
   54   27   54 1     
   55   27   55 1     
   56   28   29 ar    
   57   29   56 1     
   58   30   31 1     
   59   30   32 am    
   60   31   57 1     
   61   31   58 1     
   62   31   59 1     
   63   32   33 2     
@<TRIPOS>SUBSTRUCTURE
      1 ****           1
@<TRIPOS>SET
DONOR_HYDROGENS      STATIC     ATOMS    <user>   **** ""
1 38
ATOM$RED        STATIC     ATOMS    COLORGROUP SYSTEM
1 38
