#       Name:                1BK
#       Creating user name   gbret
#       Creation time:       Thu Sep  8 20:00:05 2016


#       File generated by GOLD software.
#

@<TRIPOS>MOLECULE
1BK
    58    61     1
SMALL
NO_CHARGES


@<TRIPOS>ATOM
      1 C1          -3.3264   7.4977   6.9144 C.3            1 <1>                0.0000
      2 S2          -3.3018   5.6839   6.9044 S.o2           1 <1>                0.0000
      3 O3          -2.5029   5.2360   7.9908 O.2            1 <1>                0.0000
      4 O4          -4.6375   5.2137   6.7852 O.2            1 <1>                0.0000
      5 C5          -2.4241   5.3296   5.3570 C.3            1 <1>                0.0000
      6 C6          -2.3047   3.8153   5.1736 C.3            1 <1>                0.0000
      7 C7          -1.5644   3.5164   3.8684 C.3            1 <1>                0.0000
      8 O8          -1.4529   2.1021   3.6971 O.3            1 <1>                0.0000
      9 C9          -0.8171   1.6646   2.5796 C.ar           1 <1>                0.0000
     10 C10         -0.3067   2.5702   1.6707 C.ar           1 <1>                0.0000
     11 C11          0.3433   2.1274   0.5271 C.ar           1 <1>                0.0000
     12 C12          0.4911   0.7810   0.2788 C.ar           1 <1>                0.0000
     13 C13         -0.0140  -0.1522   1.1794 C.ar           1 <1>                0.0000
     14 N14         -0.0275  -1.5261   1.2161 N.pl3          1 <1>                0.0000
     15 N15         -0.6836  -1.9444   2.3784 N.2            1 <1>                0.0000
     16 C16         -1.0784  -0.9112   3.0659 C.2            1 <1>                0.0000
     17 C17         -0.6695   0.2896   2.3437 C.ar           1 <1>                0.0000
     18 C18          0.5227  -2.3660   0.2516 C.ar           1 <1>                0.0000
     19 C19          0.9190  -3.6617   0.5845 C.ar           1 <1>                0.0000
     20 C20          1.4598  -4.4607  -0.4052 C.ar           1 <1>                0.0000
     21 N21          1.5852  -3.9767  -1.6318 N.ar           1 <1>                0.0000
     22 C22          1.2002  -2.7421  -1.9190 C.ar           1 <1>                0.0000
     23 N23          1.3473  -2.2731  -3.2128 N.pl3          1 <1>                0.0000
     24 C24          1.9228  -3.1390  -4.2448 C.3            1 <1>                0.0000
     25 C25          0.8233  -4.0177  -4.8447 C.3            1 <1>                0.0000
     26 C26          1.4243  -4.9221  -5.9225 C.3            1 <1>                0.0000
     27 C27          2.0457  -4.0600  -7.0233 C.3            1 <1>                0.0000
     28 O28          1.0376  -3.2309  -7.6050 O.3            1 <1>                0.0000
     29 C29          3.1452  -3.1814  -6.4234 C.3            1 <1>                0.0000
     30 C30          2.5441  -2.2770  -5.3456 C.3            1 <1>                0.0000
     31 N31          0.6728  -1.9472  -1.0000 N.ar           1 <1>                0.0000
     32 H32         -2.3038   7.8750   6.9067 H              1 <1>                0.0000
     33 H33         -3.8536   7.8588   6.0313 H              1 <1>                0.0000
     34 H34         -3.8366   7.8493   7.8112 H              1 <1>                0.0000
     35 H35         -2.9778   5.7544   4.5197 H              1 <1>                0.0000
     36 H36         -1.4280   5.7706   5.3950 H              1 <1>                0.0000
     37 H37         -1.7510   3.3905   6.0108 H              1 <1>                0.0000
     38 H38         -3.3008   3.3743   5.1355 H              1 <1>                0.0000
     39 H39         -2.1181   3.9413   3.0311 H              1 <1>                0.0000
     40 H40         -0.5683   3.9575   3.9064 H              1 <1>                0.0000
     41 H41         -0.4142   3.6297   1.8506 H              1 <1>                0.0000
     42 H42          0.7372   2.8465  -0.1758 H              1 <1>                0.0000
     43 H43          0.9986   0.4491  -0.6149 H              1 <1>                0.0000
     44 H44         -1.6103  -0.9380   4.0054 H              1 <1>                0.0000
     45 H45          0.8060  -4.0319   1.5928 H              1 <1>                0.0000
     46 H46          1.7769  -5.4684  -0.1808 H              1 <1>                0.0000
     47 H47          1.0693  -1.3710  -3.4362 H              1 <1>                0.0000
     48 H48          2.6917  -3.7715  -3.8011 H              1 <1>                0.0000
     49 H49          0.3806  -4.6318  -4.0605 H              1 <1>                0.0000
     50 H50          0.0544  -3.3852  -5.2884 H              1 <1>                0.0000
     51 H51          2.1932  -5.5545  -5.4788 H              1 <1>                0.0000
     52 H52          0.6410  -5.5481  -6.3499 H              1 <1>                0.0000
     53 H53          2.4739  -4.7043  -7.7912 H              1 <1>                0.0000
     54 H54          1.3610  -2.6560  -8.3121 H              1 <1>                0.0000
     55 H55          3.9141  -3.8138  -5.9797 H              1 <1>                0.0000
     56 H56          3.5878  -2.5672  -7.2077 H              1 <1>                0.0000
     57 H57          1.7752  -1.6445  -5.7893 H              1 <1>                0.0000
     58 H58          3.3275  -1.6510  -4.9183 H              1 <1>                0.0000
@<TRIPOS>BOND
    1    1    2 1     
    2    1   32 1     
    3    1   33 1     
    4    1   34 1     
    5    2    3 2     
    6    2    4 2     
    7    2    5 1     
    8    5    6 1     
    9    5   35 1     
   10    5   36 1     
   11    6    7 1     
   12    6   37 1     
   13    6   38 1     
   14    7    8 1     
   15    7   39 1     
   16    7   40 1     
   17    8    9 1     
   18    9   17 ar    
   19    9   10 ar    
   20   10   11 ar    
   21   10   41 1     
   22   11   12 ar    
   23   11   42 1     
   24   12   13 ar    
   25   12   43 1     
   26   13   17 ar    
   27   13   14 1     
   28   14   15 1     
   29   14   18 1     
   30   15   16 2     
   31   16   17 1     
   32   16   44 1     
   33   18   31 ar    
   34   18   19 ar    
   35   19   20 ar    
   36   19   45 1     
   37   20   21 ar    
   38   20   46 1     
   39   21   22 ar    
   40   22   23 1     
   41   22   31 ar    
   42   23   24 1     
   43   23   47 1     
   44   24   30 1     
   45   24   25 1     
   46   24   48 1     
   47   25   26 1     
   48   25   49 1     
   49   25   50 1     
   50   26   27 1     
   51   26   51 1     
   52   26   52 1     
   53   27   28 1     
   54   27   29 1     
   55   27   53 1     
   56   28   54 1     
   57   29   30 1     
   58   29   55 1     
   59   29   56 1     
   60   30   57 1     
   61   30   58 1     
@<TRIPOS>SUBSTRUCTURE
      1 ****           1
@<TRIPOS>SET
DONOR_HYDROGENS      STATIC     ATOMS    <user>   **** ""
2 47 54
ATOM$RED        STATIC     ATOMS    COLORGROUP SYSTEM
2 47 54
