#       Name:                1FG
#       Creating user name   gbret
#       Creation time:       Thu Sep  8 20:09:26 2016


#       File generated by GOLD software.
#

@<TRIPOS>MOLECULE
1FG
    50    53     1
SMALL
NO_CHARGES


@<TRIPOS>ATOM
      1 C1           0.3958   1.4219   0.8083 C.3            1 <1>                0.0000
      2 N2           0.3728  -0.0468   0.7936 N.4            1 <1>                0.0000
      3 H3          -0.5836  -0.3683   0.7972 H              1 <1>                0.0000
      4 C4           1.0489  -0.5350  -0.4158 C.3            1 <1>                0.0000
      5 C5           0.2681  -0.1118  -1.6333 C.2            1 <1>                0.0000
      6 O6          -0.8011   0.4459  -1.5043 O.2            1 <1>                0.0000
      7 N7           0.7581  -0.3530  -2.8655 N.am           1 <1>                0.0000
      8 C8           2.0102  -1.1023  -3.0378 C.3            1 <1>                0.0000
      9 C9           2.8554  -0.3676  -4.0867 C.3            1 <1>                0.0000
     10 C10          2.1107  -0.3849  -5.4214 C.3            1 <1>                0.0000
     11 C11          0.6992   0.1092  -5.2442 C.ar           1 <1>                0.0000
     12 C12          0.0084   0.5748  -6.3508 C.ar           1 <1>                0.0000
     13 C13         -1.2885   1.0319  -6.2212 C.ar           1 <1>                0.0000
     14 C14         -1.9065   1.0269  -4.9839 C.ar           1 <1>                0.0000
     15 C15         -1.2247   0.5655  -3.8759 C.ar           1 <1>                0.0000
     16 C16          0.0786   0.1016  -4.0041 C.ar           1 <1>                0.0000
     17 C17          1.0662  -0.5594   1.9829 C.3            1 <1>                0.0000
     18 C18          0.3031  -0.1611   3.2199 C.2            1 <1>                0.0000
     19 N19          0.5255   1.0182   3.7302 N.2            1 <1>                0.0000
     20 C20         -0.1173   1.4454   4.8338 C.2            1 <1>                0.0000
     21 O21          0.1013   2.5509   5.2985 O.2            1 <1>                0.0000
     22 C22         -1.0932   0.5377   5.4630 C.ar           1 <1>                0.0000
     23 C23         -1.8051   0.8942   6.6060 C.ar           1 <1>                0.0000
     24 C24         -2.7049   0.0031   7.1490 C.ar           1 <1>                0.0000
     25 C25         -2.9036  -1.2404   6.5655 C.ar           1 <1>                0.0000
     26 C26         -2.2059  -1.6068   5.4340 C.ar           1 <1>                0.0000
     27 C27         -1.2949  -0.7227   4.8719 C.ar           1 <1>                0.0000
     28 N28         -0.5753  -1.0381   3.7365 N.pl3          1 <1>                0.0000
     29 H29         -0.7020  -1.9002   3.3103 H              1 <1>                0.0000
     30 H30          1.4290   1.7692   0.8044 H              1 <1>                0.0000
     31 H31         -0.1186   1.8023  -0.0741 H              1 <1>                0.0000
     32 H32         -0.1058   1.7842   1.7057 H              1 <1>                0.0000
     33 H33          2.0538  -0.1156  -0.4647 H              1 <1>                0.0000
     34 H34          1.1104  -1.6228  -0.3836 H              1 <1>                0.0000
     35 H35          2.5495  -1.1427  -2.0915 H              1 <1>                0.0000
     36 H36          1.7912  -2.1130  -3.3822 H              1 <1>                0.0000
     37 H37          3.0145   0.6633  -3.7706 H              1 <1>                0.0000
     38 H38          3.8164  -0.8698  -4.1982 H              1 <1>                0.0000
     39 H39          2.6304   0.2581  -6.1317 H              1 <1>                0.0000
     40 H40          2.0893  -1.4038  -5.8082 H              1 <1>                0.0000
     41 H41          0.4862   0.5809  -7.3193 H              1 <1>                0.0000
     42 H42         -1.8211   1.3943  -7.0880 H              1 <1>                0.0000
     43 H43         -2.9210   1.3838  -4.8847 H              1 <1>                0.0000
     44 H44         -1.7057   0.5620  -2.9090 H              1 <1>                0.0000
     45 H45          1.1270  -1.6463   1.9277 H              1 <1>                0.0000
     46 H46          2.0717  -0.1409   2.0258 H              1 <1>                0.0000
     47 H47         -1.6528   1.8609   7.0629 H              1 <1>                0.0000
     48 H48         -3.2593   0.2742   8.0353 H              1 <1>                0.0000
     49 H49         -3.6120  -1.9286   7.0026 H              1 <1>                0.0000
     50 H50         -2.3671  -2.5768   4.9874 H              1 <1>                0.0000
@<TRIPOS>BOND
    1    1    2 1     
    2    1   30 1     
    3    1   31 1     
    4    1   32 1     
    5    2    3 1     
    6    2    4 1     
    7    2   17 1     
    8    4    5 1     
    9    4   33 1     
   10    4   34 1     
   11    5    6 2     
   12    5    7 am    
   13    7   16 1     
   14    7    8 1     
   15    8    9 1     
   16    8   35 1     
   17    8   36 1     
   18    9   10 1     
   19    9   37 1     
   20    9   38 1     
   21   10   11 1     
   22   10   39 1     
   23   10   40 1     
   24   11   16 ar    
   25   11   12 ar    
   26   12   13 ar    
   27   12   41 1     
   28   13   14 ar    
   29   13   42 1     
   30   14   15 ar    
   31   14   43 1     
   32   15   16 ar    
   33   15   44 1     
   34   17   18 1     
   35   17   45 1     
   36   17   46 1     
   37   18   28 1     
   38   18   19 2     
   39   19   20 1     
   40   20   21 2     
   41   20   22 1     
   42   22   27 ar    
   43   22   23 ar    
   44   23   24 ar    
   45   23   47 1     
   46   24   25 ar    
   47   24   48 1     
   48   25   26 ar    
   49   25   49 1     
   50   26   27 ar    
   51   26   50 1     
   52   27   28 1     
   53   28   29 1     
@<TRIPOS>SUBSTRUCTURE
      1 ****           1
@<TRIPOS>SET
DONOR_HYDROGENS      STATIC     ATOMS    <user>   **** ""
2 3 29
ATOM$RED        STATIC     ATOMS    COLORGROUP SYSTEM
2 3 29
