#       Name:                1H7
#       Creating user name   gbret
#       Creation time:       Thu Sep  8 20:13:01 2016


#       File generated by GOLD software.
#

@<TRIPOS>MOLECULE
1H7
    43    45     1
SMALL
NO_CHARGES


@<TRIPOS>ATOM
      1 C1           1.9315   3.5892   1.3081 C.3            1 <1>                0.0000
      2 C2           1.9522   2.0594   1.3072 C.3            1 <1>                0.0000
      3 N3           2.6372   1.5836   0.1079 N.pl3          1 <1>                0.0000
      4 H4           2.1533   1.5926  -0.7327 H              1 <1>                0.0000
      5 C5           3.8517   1.1527   0.1100 C.2            1 <1>                0.0000
      6 N6           4.3946   0.7414  -1.0826 N.pl3          1 <1>                0.0000
      7 O7           4.6187   1.0831   1.2134 O.3            1 <1>                0.0000
      8 C8           4.1874   1.8191   2.3628 C.3            1 <1>                0.0000
      9 C9           2.6862   1.5590   2.5556 C.3            1 <1>                0.0000
     10 F10          2.2277   2.2507   3.6819 F              1 <1>                0.0000
     11 C11          0.5380   1.5389   1.3150 C.ar           1 <1>                0.0000
     12 C12          0.0927   0.7351   0.2838 C.ar           1 <1>                0.0000
     13 C13         -1.2105   0.2558   0.2915 C.ar           1 <1>                0.0000
     14 N14         -1.6635  -0.5590  -0.7519 N.am           1 <1>                0.0000
     15 C15         -2.5363  -1.5545  -0.4992 C.2            1 <1>                0.0000
     16 O16         -2.9944  -1.6920   0.6179 O.2            1 <1>                0.0000
     17 C17         -2.9372  -2.4812  -1.5836 C.ar           1 <1>                0.0000
     18 C18         -3.8449  -3.5041  -1.3136 C.ar           1 <1>                0.0000
     19 C19         -4.2140  -4.3651  -2.3316 C.ar           1 <1>                0.0000
     20 C20         -3.6563  -4.1718  -3.6008 C.ar           1 <1>                0.0000
     21 C21         -2.7520  -3.1223  -3.7930 C.ar           1 <1>                0.0000
     22 N22         -2.4314  -2.3230  -2.8009 N.ar           1 <1>                0.0000
     23 C23         -4.0063  -5.0367  -4.6871 C.1            1 <1>                0.0000
     24 N24         -4.2840  -5.7228  -5.5489 N.1            1 <1>                0.0000
     25 C25         -2.0637   0.5861   1.3367 C.ar           1 <1>                0.0000
     26 C26         -1.6144   1.3900   2.3655 C.ar           1 <1>                0.0000
     27 C27         -0.3124   1.8623   2.3587 C.ar           1 <1>                0.0000
     28 F28          0.1252   2.6483   3.3666 F              1 <1>                0.0000
     29 H29          2.9541   3.9665   1.3045 H              1 <1>                0.0000
     30 H30          1.4094   3.9460   0.4202 H              1 <1>                0.0000
     31 H31          1.4160   3.9451   2.2002 H              1 <1>                0.0000
     32 H32          3.8661   0.7802  -1.8951 H              1 <1>                0.0000
     33 H33          5.3065   0.4121  -1.1125 H              1 <1>                0.0000
     34 H34          4.7357   1.4830   3.2428 H              1 <1>                0.0000
     35 H35          4.3596   2.8837   2.2047 H              1 <1>                0.0000
     36 H36          2.5110   0.4907   2.6824 H              1 <1>                0.0000
     37 H37          0.7576   0.4798  -0.5281 H              1 <1>                0.0000
     38 H38         -1.3494  -0.4074  -1.6570 H              1 <1>                0.0000
     39 H39         -4.2547  -3.6233  -0.3215 H              1 <1>                0.0000
     40 H40         -4.9149  -5.1668  -2.1514 H              1 <1>                0.0000
     41 H41         -2.3160  -2.9645  -4.7684 H              1 <1>                0.0000
     42 H42         -3.0778   0.2147   1.3444 H              1 <1>                0.0000
     43 H43         -2.2775   1.6471   3.1784 H              1 <1>                0.0000
@<TRIPOS>BOND
    1    1    2 1     
    2    1   29 1     
    3    1   30 1     
    4    1   31 1     
    5    2    9 1     
    6    2    3 1     
    7    2   11 1     
    8    3    4 1     
    9    3    5 2     
   10    5    6 1     
   11    5    7 1     
   12    6   32 1     
   13    6   33 1     
   14    7    8 1     
   15    8    9 1     
   16    8   34 1     
   17    8   35 1     
   18    9   10 1     
   19    9   36 1     
   20   11   27 ar    
   21   11   12 ar    
   22   12   13 ar    
   23   12   37 1     
   24   13   14 1     
   25   13   25 ar    
   26   14   15 am    
   27   14   38 1     
   28   15   16 2     
   29   15   17 1     
   30   17   22 ar    
   31   17   18 ar    
   32   18   19 ar    
   33   18   39 1     
   34   19   20 ar    
   35   19   40 1     
   36   20   21 ar    
   37   20   23 1     
   38   21   22 ar    
   39   21   41 1     
   40   23   24 3     
   41   25   26 ar    
   42   25   42 1     
   43   26   27 ar    
   44   26   43 1     
   45   27   28 1     
@<TRIPOS>SUBSTRUCTURE
      1 ****           1
@<TRIPOS>SET
DONOR_HYDROGENS      STATIC     ATOMS    <user>   **** ""
4 4 32 33 38
ATOM$RED        STATIC     ATOMS    COLORGROUP SYSTEM
4 4 32 33 38
