#       Name:                1IU
#       Creating user name   gbret
#       Creation time:       Thu Sep  8 20:15:20 2016


#       File generated by GOLD software.
#

@<TRIPOS>MOLECULE
1IU
    61    62     1
SMALL
NO_CHARGES


@<TRIPOS>ATOM
      1 C1          -2.3666   1.6824  -2.5136 C.3            1 <1>                0.0000
      2 C2          -2.2991   0.1704  -2.2901 C.3            1 <1>                0.0000
      3 C3          -1.6899  -0.1154  -0.9159 C.3            1 <1>                0.0000
      4 P4           0.1087   0.1754  -0.9762 P.3            1 <1>                0.0000
      5 O5           0.7532  -0.7928  -1.9932 O.co2          1 <1>                0.0000
      6 O6           0.3805   1.6333  -1.4095 O.co2          1 <1>                0.0000
      7 C7           0.8264  -0.1116   0.6749 C.3            1 <1>                0.0000
      8 C8           0.6707  -1.5869   1.0492 C.3            1 <1>                0.0000
      9 C9           1.1603  -1.8020   2.4581 C.ar           1 <1>                0.0000
     10 C10          2.4567  -2.2262   2.6821 C.ar           1 <1>                0.0000
     11 C11          2.9058  -2.4235   3.9745 C.ar           1 <1>                0.0000
     12 C12          2.0585  -2.1963   5.0429 C.ar           1 <1>                0.0000
     13 C13          0.7624  -1.7713   4.8189 C.ar           1 <1>                0.0000
     14 C14          0.3146  -1.5698   3.5267 C.ar           1 <1>                0.0000
     15 N15          2.2483   0.2404   0.6572 N.am           1 <1>                0.0000
     16 C16          2.6670   1.3831   1.2363 C.2            1 <1>                0.0000
     17 O17          1.8665   2.1200   1.7721 O.2            1 <1>                0.0000
     18 C18          4.1297   1.7451   1.2181 C.3            1 <1>                0.0000
     19 N19          4.2804   3.1866   1.4578 N.4            1 <1>                0.0000
     20 H20          3.8871   3.4210   2.3569 H              1 <1>                0.0000
     21 H21          5.2598   3.4290   1.4456 H              1 <1>                0.0000
     22 H22          3.7979   3.6999   0.7354 H              1 <1>                0.0000
     23 C23          4.8614   0.9668   2.3135 C.3            1 <1>                0.0000
     24 C24          6.3413   1.2344   2.2168 C.2            1 <1>                0.0000
     25 N25          7.2229   0.5505   1.5020 N.2            1 <1>                0.0000
     26 N26          8.3782   1.0927   1.6856 N.2            1 <1>                0.0000
     27 N27          8.2502   2.0906   2.4891 N.2            1 <1>                0.0000
     28 N28          7.0106   2.2026   2.8255 N.pl3          1 <1>                0.0000
     29 C29         -3.6886  -0.4094  -2.3539 C.2            1 <1>                0.0000
     30 O30         -4.1466  -0.9936  -1.3949 O.2            1 <1>                0.0000
     31 N31         -4.4223  -0.2787  -3.4769 N.am           1 <1>                0.0000
     32 C32         -5.7732  -0.8423  -3.5390 C.3            1 <1>                0.0000
     33 C33         -6.7700   0.1560  -2.9468 C.3            1 <1>                0.0000
     34 C34         -6.1352  -1.1220  -4.9749 C.2            1 <1>                0.0000
     35 N35         -7.3395  -1.6468  -5.2762 N.am           1 <1>                0.0000
     36 O36         -5.3429  -0.8749  -5.8592 O.2            1 <1>                0.0000
     37 H37         -1.3615   2.1018  -2.4674 H              1 <1>                0.0000
     38 H38         -2.8005   1.8860  -3.4925 H              1 <1>                0.0000
     39 H39         -2.9857   2.1368  -1.7401 H              1 <1>                0.0000
     40 H40         -1.6799  -0.2840  -3.0636 H              1 <1>                0.0000
     41 H41         -2.1401   0.5448  -0.1746 H              1 <1>                0.0000
     42 H42         -1.8812  -1.1530  -0.6423 H              1 <1>                0.0000
     43 H43          0.3083   0.5060   1.4085 H              1 <1>                0.0000
     44 H44         -0.3798  -1.8698   0.9823 H              1 <1>                0.0000
     45 H45          1.2563  -2.1994   0.3636 H              1 <1>                0.0000
     46 H46          3.1187  -2.4037   1.8474 H              1 <1>                0.0000
     47 H47          3.9185  -2.7555   4.1495 H              1 <1>                0.0000
     48 H48          2.4092  -2.3511   6.0526 H              1 <1>                0.0000
     49 H49          0.1003  -1.5940   5.6536 H              1 <1>                0.0000
     50 H50         -0.6981  -1.2378   3.3516 H              1 <1>                0.0000
     51 H51          2.8886  -0.3490   0.2286 H              1 <1>                0.0000
     52 H52          4.5547   1.4919   0.2468 H              1 <1>                0.0000
     53 H53          4.4977   1.2853   3.2903 H              1 <1>                0.0000
     54 H54          4.6761  -0.0998   2.1869 H              1 <1>                0.0000
     55 H55         -4.0560   0.1885  -4.2440 H              1 <1>                0.0000
     56 H56         -5.8062  -1.7705  -2.9685 H              1 <1>                0.0000
     57 H57         -7.7751  -0.2634  -2.9930 H              1 <1>                0.0000
     58 H58         -6.5081   0.3583  -1.9083 H              1 <1>                0.0000
     59 H59         -6.7370   1.0842  -3.5173 H              1 <1>                0.0000
     60 H60         -7.5726  -1.8270  -6.2004 H              1 <1>                0.0000
     61 H61         -7.9731  -1.8444  -4.5688 H              1 <1>                0.0000
@<TRIPOS>BOND
    1    1    2 1     
    2    1   37 1     
    3    1   38 1     
    4    1   39 1     
    5    2    3 1     
    6    2   29 1     
    7    2   40 1     
    8    3    4 1     
    9    3   41 1     
   10    3   42 1     
   11    4    5 ar    
   12    4    6 ar    
   13    4    7 1     
   14    7    8 1     
   15    7   15 1     
   16    7   43 1     
   17    8    9 1     
   18    8   44 1     
   19    8   45 1     
   20    9   14 ar    
   21    9   10 ar    
   22   10   11 ar    
   23   10   46 1     
   24   11   12 ar    
   25   11   47 1     
   26   12   13 ar    
   27   12   48 1     
   28   13   14 ar    
   29   13   49 1     
   30   14   50 1     
   31   15   16 am    
   32   15   51 1     
   33   16   17 2     
   34   16   18 1     
   35   18   19 1     
   36   18   23 1     
   37   18   52 1     
   38   19   20 1     
   39   19   21 1     
   40   19   22 1     
   41   23   24 1     
   42   23   53 1     
   43   23   54 1     
   44   24   28 1     
   45   24   25 2     
   46   25   26 1     
   47   26   27 2     
   48   27   28 1     
   49   29   30 2     
   50   29   31 am    
   51   31   32 1     
   52   31   55 1     
   53   32   33 1     
   54   32   34 1     
   55   32   56 1     
   56   33   57 1     
   57   33   58 1     
   58   33   59 1     
   59   34   35 am    
   60   34   36 2     
   61   35   60 1     
   62   35   61 1     
@<TRIPOS>SUBSTRUCTURE
      1 ****           1
@<TRIPOS>SET
DONOR_HYDROGENS      STATIC     ATOMS    <user>   **** ""
7 51 20 21 22 55 60 61
ATOM$RED        STATIC     ATOMS    COLORGROUP SYSTEM
7 51 20 21 22 55 60 61
