#       Name:                1JB
#       Creating user name   gbret
#       Creation time:       Thu Sep  8 20:15:55 2016


#       File generated by GOLD software.
#

@<TRIPOS>MOLECULE
1JB
    59    61     1
SMALL
NO_CHARGES


@<TRIPOS>ATOM
      1 C1          -3.8735   3.4791   4.8820 C.3            1 <1>                0.0000
      2 C2          -3.8527   1.9492   4.8736 C.3            1 <1>                0.0000
      3 O3          -3.1827   1.4882   3.6986 O.3            1 <1>                0.0000
      4 C4          -3.1293   0.0653   3.5778 C.3            1 <1>                0.0000
      5 O5          -2.4654  -0.2852   2.3619 O.3            1 <1>                0.0000
      6 P6          -3.2419  -0.4895   0.9663 P.3            1 <1>                0.0000
      7 O7          -4.1887  -1.7054   1.0770 O.co2          1 <1>                0.0000
      8 O8          -4.0659   0.7773   0.6452 O.co2          1 <1>                0.0000
      9 O9          -2.1730  -0.7470  -0.2098 O.3            1 <1>                0.0000
     10 P10         -2.2234  -0.6210  -1.8141 P.3            1 <1>                0.0000
     11 O11         -3.0222  -1.8070  -2.3990 O.co2          1 <1>                0.0000
     12 O12         -2.9112   0.7060  -2.2051 O.co2          1 <1>                0.0000
     13 O13         -0.7245  -0.6419  -2.4014 O.3            1 <1>                0.0000
     14 C14         -0.4279  -0.4434  -3.7851 C.3            1 <1>                0.0000
     15 C15          1.0849  -0.5250  -3.9992 C.3            1 <1>                0.0000
     16 O16          1.5473  -1.8798  -3.8085 O.3            1 <1>                0.0000
     17 C17          2.8165  -1.9488  -4.4941 C.3            1 <1>                0.0000
     18 C18          2.6048  -1.1478  -5.7980 C.3            1 <1>                0.0000
     19 C19          1.4394  -0.1896  -5.4649 C.3            1 <1>                0.0000
     20 O20          0.3231  -0.4425  -6.3205 O.3            1 <1>                0.0000
     21 N21          3.8689  -1.3326  -3.6823 N.am           1 <1>                0.0000
     22 C22          3.5654  -0.8331  -2.4450 C.2            1 <1>                0.0000
     23 C23          4.5355  -0.2656  -1.6967 C.2            1 <1>                0.0000
     24 C24          4.2204   0.2895  -0.3315 C.3            1 <1>                0.0000
     25 C25          5.8527  -0.1995  -2.2114 C.2            1 <1>                0.0000
     26 O26          6.7444   0.3073  -1.5548 O.2            1 <1>                0.0000
     27 N27          6.1108  -0.7032  -3.4353 N.am           1 <1>                0.0000
     28 H28          7.0108  -0.6616  -3.7948 H              1 <1>                0.0000
     29 C29          5.1258  -1.2681  -4.1579 C.2            1 <1>                0.0000
     30 O30          5.3734  -1.7185  -5.2598 O.2            1 <1>                0.0000
     31 C31         -2.3598  -0.5178   4.7660 C.3            1 <1>                0.0000
     32 O32         -1.0159  -0.0323   4.7492 O.3            1 <1>                0.0000
     33 C33         -3.0433  -0.0877   6.0676 C.3            1 <1>                0.0000
     34 O34         -2.2902  -0.5662   7.1837 O.3            1 <1>                0.0000
     35 C35         -3.1123   1.4419   6.1138 C.3            1 <1>                0.0000
     36 O36         -1.7884   1.9793   6.1328 O.3            1 <1>                0.0000
     37 H37         -2.8509   3.8564   4.8743 H              1 <1>                0.0000
     38 H38         -4.4007   3.8401   3.9990 H              1 <1>                0.0000
     39 H39         -4.3837   3.8306   5.7788 H              1 <1>                0.0000
     40 H40         -4.8753   1.5718   4.8809 H              1 <1>                0.0000
     41 H41         -4.1423  -0.3370   3.5679 H              1 <1>                0.0000
     42 H42         -0.9207  -1.2149  -4.3766 H              1 <1>                0.0000
     43 H43         -0.7865   0.5377  -4.0964 H              1 <1>                0.0000
     44 H44          1.6007   0.1531  -3.3194 H              1 <1>                0.0000
     45 H45          3.0691  -2.9844  -4.7217 H              1 <1>                0.0000
     46 H46          3.5029  -0.5838  -6.0499 H              1 <1>                0.0000
     47 H47          2.3295  -1.8144  -6.6153 H              1 <1>                0.0000
     48 H48          1.7613   0.8481  -5.5521 H              1 <1>                0.0000
     49 H49          0.5085  -0.3059  -7.2597 H              1 <1>                0.0000
     50 H50          2.5547  -0.8922  -2.0690 H              1 <1>                0.0000
     51 H51          4.3550  -0.4906   0.4178 H              1 <1>                0.0000
     52 H52          4.8902   1.1215  -0.1141 H              1 <1>                0.0000
     53 H53          3.1882   0.6390  -0.3108 H              1 <1>                0.0000
     54 H54         -2.3550  -1.6057   4.6983 H              1 <1>                0.0000
     55 H55         -0.5239  -0.2642   3.9497 H              1 <1>                0.0000
     56 H56         -4.0514  -0.5007   6.1039 H              1 <1>                0.0000
     57 H57         -2.2002  -1.5285   7.2140 H              1 <1>                0.0000
     58 H58         -3.6466   1.7554   7.0107 H              1 <1>                0.0000
     59 H59         -1.7564   2.9453   6.1621 H              1 <1>                0.0000
@<TRIPOS>BOND
    1    1    2 1     
    2    1   37 1     
    3    1   38 1     
    4    1   39 1     
    5    2   35 1     
    6    2    3 1     
    7    2   40 1     
    8    3    4 1     
    9    4    5 1     
   10    4   31 1     
   11    4   41 1     
   12    5    6 1     
   13    6    7 ar    
   14    6    8 ar    
   15    6    9 1     
   16    9   10 1     
   17   10   11 ar    
   18   10   12 ar    
   19   10   13 1     
   20   13   14 1     
   21   14   15 1     
   22   14   42 1     
   23   14   43 1     
   24   15   19 1     
   25   15   16 1     
   26   15   44 1     
   27   16   17 1     
   28   17   18 1     
   29   17   21 1     
   30   17   45 1     
   31   18   19 1     
   32   18   46 1     
   33   18   47 1     
   34   19   20 1     
   35   19   48 1     
   36   20   49 1     
   37   21   29 1     
   38   21   22 1     
   39   22   23 2     
   40   22   50 1     
   41   23   24 1     
   42   23   25 1     
   43   24   51 1     
   44   24   52 1     
   45   24   53 1     
   46   25   26 2     
   47   25   27 1     
   48   27   28 1     
   49   27   29 1     
   50   29   30 2     
   51   31   32 1     
   52   31   33 1     
   53   31   54 1     
   54   32   55 1     
   55   33   34 1     
   56   33   35 1     
   57   33   56 1     
   58   34   57 1     
   59   35   36 1     
   60   35   58 1     
   61   36   59 1     
@<TRIPOS>SUBSTRUCTURE
      1 ****           1
@<TRIPOS>SET
DONOR_HYDROGENS      STATIC     ATOMS    <user>   **** ""
5 49 28 55 57 59
ATOM$RED        STATIC     ATOMS    COLORGROUP SYSTEM
5 49 28 55 57 59
