#       Name:                1JC
#       Creating user name   gbret
#       Creation time:       Thu Sep  8 20:16:00 2016


#       File generated by GOLD software.
#

@<TRIPOS>MOLECULE
1JC
    68    73     1
SMALL
NO_CHARGES


@<TRIPOS>ATOM
      1 O1          -0.7672  -0.1704  -0.4511 O.2            1 <1>                0.0000
      2 C2          -0.7837   1.0475  -0.4444 C.2            1 <1>                0.0000
      3 C3          -2.1098   1.6861  -0.4224 C.ar           1 <1>                0.0000
      4 C4          -3.1440   0.7481  -0.4134 C.ar           1 <1>                0.0000
      5 C5          -4.4529   1.1752  -0.3928 C.ar           1 <1>                0.0000
      6 C6          -5.5689   0.1626  -0.3831 C.3            1 <1>                0.0000
      7 S7          -5.9930  -0.2534   1.3309 S.o2           1 <1>                0.0000
      8 O8          -4.9339  -0.9741   1.9458 O.2            1 <1>                0.0000
      9 O9          -6.5960   0.8580   1.9792 O.2            1 <1>                0.0000
     10 N10         -7.2167  -1.3611   1.1966 N.pl3          1 <1>                0.0000
     11 C11         -6.9580  -2.6681   0.5873 C.3            1 <1>                0.0000
     12 C12         -8.0928  -3.6059   0.9094 C.ar           1 <1>                0.0000
     13 C13         -9.1277  -3.7616   0.0064 C.ar           1 <1>                0.0000
     14 C14        -10.1667  -4.6268   0.3124 C.ar           1 <1>                0.0000
     15 C15        -10.1259  -5.3061   1.5207 C.ar           1 <1>                0.0000
     16 C16         -9.0584  -5.0995   2.3735 C.ar           1 <1>                0.0000
     17 N17         -8.0843  -4.2725   2.0470 N.ar           1 <1>                0.0000
     18 C18         -4.7537   2.5314  -0.3805 C.ar           1 <1>                0.0000
     19 C19         -3.7517   3.4741  -0.3895 C.ar           1 <1>                0.0000
     20 C20         -2.4123   3.0660  -0.4108 C.ar           1 <1>                0.0000
     21 C21         -1.4960   4.2049  -0.4175 C.2            1 <1>                0.0000
     22 C22         -0.1471   4.2228  -0.4366 C.2            1 <1>                0.0000
     23 C23          0.7988   3.1076  -0.4567 C.ar           1 <1>                0.0000
     24 N24          2.0617   3.5363  -0.4726 N.ar           1 <1>                0.0000
     25 C25          3.0751   2.7033  -0.4921 C.ar           1 <1>                0.0000
     26 C26          2.8807   1.3169  -0.4977 C.ar           1 <1>                0.0000
     27 C27          1.5832   0.8109  -0.4817 C.ar           1 <1>                0.0000
     28 C28          0.5238   1.7216  -0.4532 C.ar           1 <1>                0.0000
     29 C29          4.0444   0.3965  -0.5208 C.2            1 <1>                0.0000
     30 C30          3.9924  -1.0114  -0.5348 C.2            1 <1>                0.0000
     31 N31          5.2185  -1.4624  -0.5538 N.2            1 <1>                0.0000
     32 N32          6.0948  -0.3704  -0.5527 N.pl3          1 <1>                0.0000
     33 C33          5.3601   0.7597  -0.5384 C.2            1 <1>                0.0000
     34 C34          7.5579  -0.4434  -0.5706 C.3            1 <1>                0.0000
     35 C35          8.1191   0.7263  -1.3842 C.3            1 <1>                0.0000
     36 C36          9.6479   0.6894  -1.3325 C.3            1 <1>                0.0000
     37 N37         10.0968   0.8005   0.0605 N.4            1 <1>                0.0000
     38 H38         11.1051   0.8297   0.0866 H              1 <1>                0.0000
     39 H39          9.7263   1.6470   0.4658 H              1 <1>                0.0000
     40 C40          9.6222  -0.3555   0.8305 C.3            1 <1>                0.0000
     41 C41          8.0923  -0.3588   0.8620 C.3            1 <1>                0.0000
     42 H42         -2.9183  -0.3080  -0.4228 H              1 <1>                0.0000
     43 H43         -6.4431   0.5804  -0.8825 H              1 <1>                0.0000
     44 H44         -5.2472  -0.7377  -0.9065 H              1 <1>                0.0000
     45 H45         -8.1047  -1.1446   1.5214 H              1 <1>                0.0000
     46 H46         -6.8758  -2.5551  -0.4937 H              1 <1>                0.0000
     47 H47         -6.0271  -3.0751   0.9819 H              1 <1>                0.0000
     48 H48         -9.1270  -3.2159  -0.9256 H              1 <1>                0.0000
     49 H49        -10.9887  -4.7682  -0.3737 H              1 <1>                0.0000
     50 H50        -10.9185  -5.9877   1.7919 H              1 <1>                0.0000
     51 H51         -9.0192  -5.6247   3.3164 H              1 <1>                0.0000
     52 H52         -5.7857   2.8492  -0.3640 H              1 <1>                0.0000
     53 H53         -3.9974   4.5257  -0.3801 H              1 <1>                0.0000
     54 H54         -1.9688   5.1759  -0.4057 H              1 <1>                0.0000
     55 H55          0.3003   5.2058  -0.4374 H              1 <1>                0.0000
     56 H56          4.0812   3.0957  -0.5045 H              1 <1>                0.0000
     57 H57          1.4015  -0.2537  -0.4855 H              1 <1>                0.0000
     58 H58          3.0955  -1.6129  -0.5305 H              1 <1>                0.0000
     59 H59          5.7432   1.7695  -0.5340 H              1 <1>                0.0000
     60 H60          7.8703  -1.3855  -1.0212 H              1 <1>                0.0000
     61 H61          7.7877   0.6419  -2.4192 H              1 <1>                0.0000
     62 H62          7.7632   1.6665  -0.9630 H              1 <1>                0.0000
     63 H63         10.0027  -0.2511  -1.7542 H              1 <1>                0.0000
     64 H64         10.0508   1.5208  -1.9110 H              1 <1>                0.0000
     65 H65          9.9775  -1.2737   0.3627 H              1 <1>                0.0000
     66 H66         10.0060  -0.2956   1.8489 H              1 <1>                0.0000
     67 H67          7.7360   0.5589   1.3299 H              1 <1>                0.0000
     68 H68          7.7419  -1.2189   1.4326 H              1 <1>                0.0000
@<TRIPOS>BOND
    1    1    2 2     
    2    2   28 1     
    3    2    3 1     
    4    3   20 ar    
    5    3    4 ar    
    6    4    5 ar    
    7    4   42 1     
    8    5    6 1     
    9    5   18 ar    
   10    6    7 1     
   11    6   43 1     
   12    6   44 1     
   13    7    8 2     
   14    7    9 2     
   15    7   10 1     
   16   10   11 1     
   17   10   45 1     
   18   11   12 1     
   19   11   46 1     
   20   11   47 1     
   21   12   17 ar    
   22   12   13 ar    
   23   13   14 ar    
   24   13   48 1     
   25   14   15 ar    
   26   14   49 1     
   27   15   16 ar    
   28   15   50 1     
   29   16   17 ar    
   30   16   51 1     
   31   18   19 ar    
   32   18   52 1     
   33   19   20 ar    
   34   19   53 1     
   35   20   21 1     
   36   21   22 2     
   37   21   54 1     
   38   22   23 1     
   39   22   55 1     
   40   23   28 ar    
   41   23   24 ar    
   42   24   25 ar    
   43   25   26 ar    
   44   25   56 1     
   45   26   27 ar    
   46   26   29 1     
   47   27   28 ar    
   48   27   57 1     
   49   29   33 2     
   50   29   30 1     
   51   30   31 2     
   52   30   58 1     
   53   31   32 1     
   54   32   33 1     
   55   32   34 1     
   56   33   59 1     
   57   34   41 1     
   58   34   35 1     
   59   34   60 1     
   60   35   36 1     
   61   35   61 1     
   62   35   62 1     
   63   36   37 1     
   64   36   63 1     
   65   36   64 1     
   66   37   38 1     
   67   37   39 1     
   68   37   40 1     
   69   40   41 1     
   70   40   65 1     
   71   40   66 1     
   72   41   67 1     
   73   41   68 1     
@<TRIPOS>SUBSTRUCTURE
      1 ****           1
@<TRIPOS>SET
DONOR_HYDROGENS      STATIC     ATOMS    <user>   **** ""
3 45 38 39
ATOM$RED        STATIC     ATOMS    COLORGROUP SYSTEM
3 45 38 39
