#       Name:                1LA
#       Creating user name   gbret
#       Creation time:       Thu Sep  8 20:19:53 2016


#       File generated by GOLD software.
#

@<TRIPOS>MOLECULE
1LA
   172   173     1
SMALL
NO_CHARGES


@<TRIPOS>ATOM
      1 C1          15.1568  21.1941   1.0828 C.3            1 <1>                0.0000
      2 C2          15.1816  19.6643   1.0805 C.3            1 <1>                0.0000
      3 C3          13.7477  19.1310   1.0960 C.3            1 <1>                0.0000
      4 C4          13.7724  17.6012   1.0937 C.3            1 <1>                0.0000
      5 C5          12.3385  17.0679   1.1092 C.3            1 <1>                0.0000
      6 C6          12.3633  15.5381   1.1069 C.3            1 <1>                0.0000
      7 C7          10.9293  15.0047   1.1224 C.3            1 <1>                0.0000
      8 C8          10.9541  13.4749   1.1201 C.3            1 <1>                0.0000
      9 C9           9.5202  12.9416   1.1356 C.3            1 <1>                0.0000
     10 C10          9.5450  11.4118   1.1333 C.3            1 <1>                0.0000
     11 C11          8.1110  10.8785   1.1488 C.3            1 <1>                0.0000
     12 C12          8.1358   9.3487   1.1465 C.3            1 <1>                0.0000
     13 C13          6.7019   8.8153   1.1620 C.3            1 <1>                0.0000
     14 C14          6.7267   7.2855   1.1597 C.3            1 <1>                0.0000
     15 C15          5.2927   6.7522   1.1752 C.3            1 <1>                0.0000
     16 C16          5.3175   5.2224   1.1729 C.3            1 <1>                0.0000
     17 C17          3.8836   4.6891   1.1885 C.3            1 <1>                0.0000
     18 C18          3.9083   3.1593   1.1861 C.3            1 <1>                0.0000
     19 C19          2.4744   2.6260   1.2017 C.3            1 <1>                0.0000
     20 C20          2.4992   1.0962   1.1993 C.3            1 <1>                0.0000
     21 C21          1.0652   0.5628   1.2149 C.3            1 <1>                0.0000
     22 C22          1.0900  -0.9670   1.2125 C.3            1 <1>                0.0000
     23 C23         -0.3439  -1.5003   1.2281 C.3            1 <1>                0.0000
     24 C24         -0.3191  -3.0301   1.2257 C.3            1 <1>                0.0000
     25 C25         -1.7531  -3.5634   1.2413 C.3            1 <1>                0.0000
     26 C26         -1.7287  -5.0702   1.2390 C.2            1 <1>                0.0000
     27 O27         -0.6687  -5.6595   1.2261 O.2            1 <1>                0.0000
     28 N28         -2.8847  -5.7630   1.2511 N.am           1 <1>                0.0000
     29 C29         -2.8610  -7.2278   1.2489 C.3            1 <1>                0.0000
     30 C30         -2.7107  -7.7376   2.6836 C.3            1 <1>                0.0000
     31 O31         -3.8689  -7.3795   3.4402 O.3            1 <1>                0.0000
     32 C32         -3.8298  -7.8109   4.8019 C.3            1 <1>                0.0000
     33 O33         -2.8509  -7.0518   5.5144 O.3            1 <1>                0.0000
     34 C34         -2.7114  -7.4222   6.8876 C.3            1 <1>                0.0000
     35 C35         -1.6222  -6.5674   7.5385 C.3            1 <1>                0.0000
     36 O36         -0.3402  -6.8691   6.9272 O.3            1 <1>                0.0000
     37 C37          0.7309  -6.1970   7.3898 C.2            1 <1>                0.0000
     38 O38          0.5979  -5.3808   8.2799 O.2            1 <1>                0.0000
     39 N39          1.9505  -6.4297   6.8655 N.am           1 <1>                0.0000
     40 C40          3.0436  -5.6653   7.2755 C.ar           1 <1>                0.0000
     41 C41          3.1535  -5.2239   8.5931 C.ar           1 <1>                0.0000
     42 C42          4.2500  -4.4708   8.9586 C.ar           1 <1>                0.0000
     43 N43          5.1863  -4.1682   8.0791 N.ar           1 <1>                0.0000
     44 C44          5.1183  -4.5672   6.8231 C.ar           1 <1>                0.0000
     45 C45          4.0568  -5.3284   6.3794 C.ar           1 <1>                0.0000
     46 C46         -4.0402  -7.1956   7.6133 C.3            1 <1>                0.0000
     47 O47         -4.3758  -5.8072   7.5726 O.3            1 <1>                0.0000
     48 C48         -5.1374  -8.0081   6.9188 C.3            1 <1>                0.0000
     49 O49         -6.3951  -7.7456   7.5443 O.3            1 <1>                0.0000
     50 C50         -5.2036  -7.5999   5.4439 C.3            1 <1>                0.0000
     51 O51         -5.5700  -6.2221   5.3457 O.3            1 <1>                0.0000
     52 C52         -4.1667  -7.7581   0.6533 C.3            1 <1>                0.0000
     53 O53         -5.2691  -7.3008   1.4393 O.3            1 <1>                0.0000
     54 C54         -4.3170  -7.2482  -0.7814 C.3            1 <1>                0.0000
     55 O55         -3.2146  -7.7056  -1.5673 O.3            1 <1>                0.0000
     56 C56         -5.6227  -7.7785  -1.3769 C.3            1 <1>                0.0000
     57 C57         -5.8348  -7.1697  -2.7645 C.3            1 <1>                0.0000
     58 C58         -7.1405  -7.7000  -3.3600 C.3            1 <1>                0.0000
     59 C59         -7.3525  -7.0912  -4.7476 C.3            1 <1>                0.0000
     60 C60         -8.6583  -7.6215  -5.3431 C.3            1 <1>                0.0000
     61 C61         -8.8703  -7.0126  -6.7306 C.3            1 <1>                0.0000
     62 C62        -10.1760  -7.5429  -7.3262 C.3            1 <1>                0.0000
     63 C63        -10.3880  -6.9341  -8.7137 C.3            1 <1>                0.0000
     64 C64        -11.6938  -7.4644  -9.3093 C.3            1 <1>                0.0000
     65 C65        -11.9058  -6.8556 -10.6968 C.3            1 <1>                0.0000
     66 C66        -13.2115  -7.3859 -11.2924 C.3            1 <1>                0.0000
     67 C67        -13.4235  -6.7770 -12.6799 C.3            1 <1>                0.0000
     68 C68        -14.7293  -7.3073 -13.2755 C.3            1 <1>                0.0000
     69 C69        -14.9413  -6.6985 -14.6630 C.3            1 <1>                0.0000
     70 H70         16.1784  21.5741   1.0717 H              1 <1>                0.0000
     71 H71         14.6271  21.5503   0.1993 H              1 <1>                0.0000
     72 H72         14.6473  21.5479   1.9791 H              1 <1>                0.0000
     73 H73         15.6911  19.3106   0.1841 H              1 <1>                0.0000
     74 H74         15.7113  19.3082   1.9640 H              1 <1>                0.0000
     75 H75         13.2381  19.4847   1.9923 H              1 <1>                0.0000
     76 H76         13.2179  19.4871   0.2125 H              1 <1>                0.0000
     77 H77         14.2820  17.2474   0.1973 H              1 <1>                0.0000
     78 H78         14.3022  17.2450   1.9772 H              1 <1>                0.0000
     79 H79         11.8290  17.4216   2.0055 H              1 <1>                0.0000
     80 H80         11.8088  17.4240   0.2257 H              1 <1>                0.0000
     81 H81         12.8728  15.1843   0.2106 H              1 <1>                0.0000
     82 H82         12.8930  15.1819   1.9904 H              1 <1>                0.0000
     83 H83         10.4198  15.3585   2.0187 H              1 <1>                0.0000
     84 H84         10.3996  15.3609   0.2389 H              1 <1>                0.0000
     85 H85         11.4636  13.1212   0.2238 H              1 <1>                0.0000
     86 H86         11.4839  13.1188   2.0036 H              1 <1>                0.0000
     87 H87          9.0107  13.2953   2.0319 H              1 <1>                0.0000
     88 H88          8.9905  13.2978   0.2521 H              1 <1>                0.0000
     89 H89         10.0545  11.0581   0.2370 H              1 <1>                0.0000
     90 H90         10.0747  11.0556   2.0168 H              1 <1>                0.0000
     91 H91          7.6015  11.2322   2.0451 H              1 <1>                0.0000
     92 H92          7.5813  11.2346   0.2653 H              1 <1>                0.0000
     93 H93          8.6453   8.9949   0.2502 H              1 <1>                0.0000
     94 H94          8.6655   8.9925   2.0300 H              1 <1>                0.0000
     95 H95          6.1924   9.1691   2.0584 H              1 <1>                0.0000
     96 H96          6.1721   9.1715   0.2785 H              1 <1>                0.0000
     97 H97          7.2362   6.9318   0.2634 H              1 <1>                0.0000
     98 H98          7.2564   6.9294   2.0432 H              1 <1>                0.0000
     99 H99          4.7832   7.1060   2.0716 H              1 <1>                0.0000
    100 H100         4.7630   7.1084   0.2917 H              1 <1>                0.0000
    101 H101         5.8270   4.8687   0.2766 H              1 <1>                0.0000
    102 H102         5.8472   4.8663   2.0564 H              1 <1>                0.0000
    103 H103         3.3740   5.0428   2.0848 H              1 <1>                0.0000
    104 H104         3.3538   5.0452   0.3049 H              1 <1>                0.0000
    105 H105         4.4179   2.8055   0.2898 H              1 <1>                0.0000
    106 H106         4.4381   2.8031   2.0696 H              1 <1>                0.0000
    107 H107         1.9649   2.9797   2.0980 H              1 <1>                0.0000
    108 H108         1.9447   2.9821   0.3181 H              1 <1>                0.0000
    109 H109         3.0087   0.7424   0.3030 H              1 <1>                0.0000
    110 H110         3.0289   0.7400   2.0828 H              1 <1>                0.0000
    111 H111         0.5557   0.9166   2.1112 H              1 <1>                0.0000
    112 H112         0.5355   0.9190   0.3313 H              1 <1>                0.0000
    113 H113         1.5995  -1.3207   0.3162 H              1 <1>                0.0000
    114 H114         1.6198  -1.3231   2.0960 H              1 <1>                0.0000
    115 H115        -0.8534  -1.1466   2.1244 H              1 <1>                0.0000
    116 H116        -0.8736  -1.1441   0.3445 H              1 <1>                0.0000
    117 H117         0.1904  -3.3838   0.3294 H              1 <1>                0.0000
    118 H118         0.2106  -3.3863   2.1093 H              1 <1>                0.0000
    119 H119        -2.2626  -3.2097   2.1376 H              1 <1>                0.0000
    120 H120        -2.2828  -3.2073   0.3577 H              1 <1>                0.0000
    121 H121        -3.7324  -5.2917   1.2614 H              1 <1>                0.0000
    122 H122        -2.0201  -7.5766   0.6494 H              1 <1>                0.0000
    123 H123        -2.6038  -8.8223   2.6744 H              1 <1>                0.0000
    124 H124        -1.8270  -7.2893   3.1378 H              1 <1>                0.0000
    125 H125        -3.5690  -8.8685   4.8408 H              1 <1>                0.0000
    126 H126        -2.4356  -8.4747   6.9539 H              1 <1>                0.0000
    127 H127        -1.8540  -5.5121   7.3945 H              1 <1>                0.0000
    128 H128        -1.5768  -6.7871   8.6052 H              1 <1>                0.0000
    129 H129         2.0684  -7.1285   6.2032 H              1 <1>                0.0000
    130 H130         2.3907  -5.4678   9.3177 H              1 <1>                0.0000
    131 H131         4.3432  -4.1243   9.9772 H              1 <1>                0.0000
    132 H132         5.9058  -4.2980   6.1347 H              1 <1>                0.0000
    133 H133         4.0073  -5.6517   5.3501 H              1 <1>                0.0000
    134 H134        -3.9483  -7.5179   8.6505 H              1 <1>                0.0000
    135 H135        -5.2081  -5.5906   8.0146 H              1 <1>                0.0000
    136 H136        -4.9073  -9.0708   6.9943 H              1 <1>                0.0000
    137 H137        -7.1367  -8.2281   7.1542 H              1 <1>                0.0000
    138 H138        -5.9440  -8.2122   4.9293 H              1 <1>                0.0000
    139 H139        -5.6310  -5.8951   4.4377 H              1 <1>                0.0000
    140 H140        -4.1490  -8.8479   0.6517 H              1 <1>                0.0000
    141 H141        -5.3467  -6.3380   1.4853 H              1 <1>                0.0000
    142 H142        -4.3347  -6.1584  -0.7797 H              1 <1>                0.0000
    143 H143        -3.1370  -8.6683  -1.6133 H              1 <1>                0.0000
    144 H144        -5.5694  -8.8640  -1.4607 H              1 <1>                0.0000
    145 H145        -6.4553  -7.5046  -0.7289 H              1 <1>                0.0000
    146 H146        -5.8881  -6.0842  -2.6807 H              1 <1>                0.0000
    147 H147        -5.0022  -7.4436  -3.4125 H              1 <1>                0.0000
    148 H148        -7.0872  -8.7855  -3.4438 H              1 <1>                0.0000
    149 H149        -7.9730  -7.4261  -2.7120 H              1 <1>                0.0000
    150 H150        -7.4058  -6.0057  -4.6637 H              1 <1>                0.0000
    151 H151        -6.5200  -7.3651  -5.3956 H              1 <1>                0.0000
    152 H152        -8.6049  -8.7069  -5.4269 H              1 <1>                0.0000
    153 H153        -9.4908  -7.3476  -4.6951 H              1 <1>                0.0000
    154 H154        -8.9236  -5.9272  -6.6468 H              1 <1>                0.0000
    155 H155        -8.0377  -7.2865  -7.3787 H              1 <1>                0.0000
    156 H156       -10.1227  -8.6284  -7.4100 H              1 <1>                0.0000
    157 H157       -11.0086  -7.2690  -6.6782 H              1 <1>                0.0000
    158 H158       -10.4414  -5.8486  -8.6299 H              1 <1>                0.0000
    159 H159        -9.5555  -7.2080  -9.3618 H              1 <1>                0.0000
    160 H160       -11.6404  -8.5499  -9.3931 H              1 <1>                0.0000
    161 H161       -12.5263  -7.1905  -8.6613 H              1 <1>                0.0000
    162 H162       -11.9591  -5.7701 -10.6130 H              1 <1>                0.0000
    163 H163       -11.0732  -7.1295 -11.3449 H              1 <1>                0.0000
    164 H164       -13.1582  -8.4713 -11.3762 H              1 <1>                0.0000
    165 H165       -14.0441  -7.1120 -10.6443 H              1 <1>                0.0000
    166 H166       -13.4769  -5.6916 -12.5961 H              1 <1>                0.0000
    167 H167       -12.5910  -7.0509 -13.3279 H              1 <1>                0.0000
    168 H168       -14.6759  -8.3928 -13.3593 H              1 <1>                0.0000
    169 H169       -15.5618  -7.0334 -12.6274 H              1 <1>                0.0000
    170 H170       -14.1087  -6.9724 -15.3110 H              1 <1>                0.0000
    171 H171       -15.8715  -7.0763 -15.0873 H              1 <1>                0.0000
    172 H172       -14.9946  -5.6130 -14.5792 H              1 <1>                0.0000
@<TRIPOS>BOND
    1    1    2 1     
    2    1   70 1     
    3    1   71 1     
    4    1   72 1     
    5    2    3 1     
    6    2   73 1     
    7    2   74 1     
    8    3    4 1     
    9    3   75 1     
   10    3   76 1     
   11    4    5 1     
   12    4   77 1     
   13    4   78 1     
   14    5    6 1     
   15    5   79 1     
   16    5   80 1     
   17    6    7 1     
   18    6   81 1     
   19    6   82 1     
   20    7    8 1     
   21    7   83 1     
   22    7   84 1     
   23    8    9 1     
   24    8   85 1     
   25    8   86 1     
   26    9   10 1     
   27    9   87 1     
   28    9   88 1     
   29   10   11 1     
   30   10   89 1     
   31   10   90 1     
   32   11   12 1     
   33   11   91 1     
   34   11   92 1     
   35   12   13 1     
   36   12   93 1     
   37   12   94 1     
   38   13   14 1     
   39   13   95 1     
   40   13   96 1     
   41   14   15 1     
   42   14   97 1     
   43   14   98 1     
   44   15   16 1     
   45   15   99 1     
   46   15  100 1     
   47   16   17 1     
   48   16  101 1     
   49   16  102 1     
   50   17   18 1     
   51   17  103 1     
   52   17  104 1     
   53   18   19 1     
   54   18  105 1     
   55   18  106 1     
   56   19   20 1     
   57   19  107 1     
   58   19  108 1     
   59   20   21 1     
   60   20  109 1     
   61   20  110 1     
   62   21   22 1     
   63   21  111 1     
   64   21  112 1     
   65   22   23 1     
   66   22  113 1     
   67   22  114 1     
   68   23   24 1     
   69   23  115 1     
   70   23  116 1     
   71   24   25 1     
   72   24  117 1     
   73   24  118 1     
   74   25   26 1     
   75   25  119 1     
   76   25  120 1     
   77   26   27 2     
   78   26   28 am    
   79   28   29 1     
   80   28  121 1     
   81   29   30 1     
   82   29   52 1     
   83   29  122 1     
   84   30   31 1     
   85   30  123 1     
   86   30  124 1     
   87   31   32 1     
   88   32   50 1     
   89   32   33 1     
   90   32  125 1     
   91   33   34 1     
   92   34   35 1     
   93   34   46 1     
   94   34  126 1     
   95   35   36 1     
   96   35  127 1     
   97   35  128 1     
   98   36   37 1     
   99   37   38 2     
  100   37   39 am    
  101   39   40 1     
  102   39  129 1     
  103   40   45 ar    
  104   40   41 ar    
  105   41   42 ar    
  106   41  130 1     
  107   42   43 ar    
  108   42  131 1     
  109   43   44 ar    
  110   44   45 ar    
  111   44  132 1     
  112   45  133 1     
  113   46   47 1     
  114   46   48 1     
  115   46  134 1     
  116   47  135 1     
  117   48   49 1     
  118   48   50 1     
  119   48  136 1     
  120   49  137 1     
  121   50   51 1     
  122   50  138 1     
  123   51  139 1     
  124   52   53 1     
  125   52   54 1     
  126   52  140 1     
  127   53  141 1     
  128   54   55 1     
  129   54   56 1     
  130   54  142 1     
  131   55  143 1     
  132   56   57 1     
  133   56  144 1     
  134   56  145 1     
  135   57   58 1     
  136   57  146 1     
  137   57  147 1     
  138   58   59 1     
  139   58  148 1     
  140   58  149 1     
  141   59   60 1     
  142   59  150 1     
  143   59  151 1     
  144   60   61 1     
  145   60  152 1     
  146   60  153 1     
  147   61   62 1     
  148   61  154 1     
  149   61  155 1     
  150   62   63 1     
  151   62  156 1     
  152   62  157 1     
  153   63   64 1     
  154   63  158 1     
  155   63  159 1     
  156   64   65 1     
  157   64  160 1     
  158   64  161 1     
  159   65   66 1     
  160   65  162 1     
  161   65  163 1     
  162   66   67 1     
  163   66  164 1     
  164   66  165 1     
  165   67   68 1     
  166   67  166 1     
  167   67  167 1     
  168   68   69 1     
  169   68  168 1     
  170   68  169 1     
  171   69  170 1     
  172   69  171 1     
  173   69  172 1     
@<TRIPOS>SUBSTRUCTURE
      1 ****           1
@<TRIPOS>SET
DONOR_HYDROGENS      STATIC     ATOMS    <user>   **** ""
7 121 129 135 137 139 141 143
ATOM$RED        STATIC     ATOMS    COLORGROUP SYSTEM
7 121 129 135 137 139 141 143
