#       Name:                1LR
#       Creating user name   gbret
#       Creation time:       Thu Sep  8 20:20:56 2016


#       File generated by GOLD software.
#

@<TRIPOS>MOLECULE
1LR
    29    30     1
SMALL
NO_CHARGES


@<TRIPOS>ATOM
      1 O1           0.8668   1.3258   2.3729 O.3            1 <1>                0.0000
      2 C2           0.2904   0.0997   2.4424 C.ar           1 <1>                0.0000
      3 C3          -0.3051  -0.4598   1.3134 C.ar           1 <1>                0.0000
      4 N4          -0.3093   0.2435   0.1022 N.am           1 <1>                0.0000
      5 C5          -0.2039  -0.4230  -1.0645 C.2            1 <1>                0.0000
      6 O6          -0.1877  -1.6386  -1.0708 O.2            1 <1>                0.0000
      7 C7          -0.1082   0.3240  -2.3364 C.ar           1 <1>                0.0000
      8 C8          -0.1207   1.7198  -2.3323 C.ar           1 <1>                0.0000
      9 C9          -0.0310   2.4108  -3.5229 C.ar           1 <1>                0.0000
     10 C10          0.0708   1.7234  -4.7194 C.ar           1 <1>                0.0000
     11 C11          0.0838   0.3399  -4.7305 C.ar           1 <1>                0.0000
     12 C12          0.0010  -0.3633  -3.5465 C.ar           1 <1>                0.0000
     13 C13         -0.8926  -1.7126   1.3897 C.ar           1 <1>                0.0000
     14 C14         -0.8921  -2.4147   2.5841 C.ar           1 <1>                0.0000
     15 C15         -0.3080  -1.8758   3.7086 C.ar           1 <1>                0.0000
     16 C16          0.2952  -0.6140   3.6483 C.ar           1 <1>                0.0000
     17 C17          0.9205  -0.0349   4.8481 C.2            1 <1>                0.0000
     18 O18          0.9141  -0.6565   5.9018 O.co2          1 <1>                0.0000
     19 O19          1.4468   1.0681   4.7918 O.co2          1 <1>                0.0000
     20 H20          1.8022   1.3074   2.1284 H              1 <1>                0.0000
     21 H21         -0.3880   1.2103   0.1030 H              1 <1>                0.0000
     22 H22         -0.2009   2.2576  -1.3991 H              1 <1>                0.0000
     23 H23         -0.0407   3.4908  -3.5211 H              1 <1>                0.0000
     24 H24          0.1400   2.2692  -5.6487 H              1 <1>                0.0000
     25 H25          0.1635  -0.1906  -5.6678 H              1 <1>                0.0000
     26 H26          0.0113  -1.4432  -3.5565 H              1 <1>                0.0000
     27 H27         -1.3537  -2.1438   0.5134 H              1 <1>                0.0000
     28 H28         -1.3528  -3.3902   2.6335 H              1 <1>                0.0000
     29 H29         -0.3116  -2.4286   4.6363 H              1 <1>                0.0000
@<TRIPOS>BOND
    1    1    2 1     
    2    1   20 1     
    3    2   16 ar    
    4    2    3 ar    
    5    3    4 1     
    6    3   13 ar    
    7    4    5 am    
    8    4   21 1     
    9    5    6 2     
   10    5    7 1     
   11    7   12 ar    
   12    7    8 ar    
   13    8    9 ar    
   14    8   22 1     
   15    9   10 ar    
   16    9   23 1     
   17   10   11 ar    
   18   10   24 1     
   19   11   12 ar    
   20   11   25 1     
   21   12   26 1     
   22   13   14 ar    
   23   13   27 1     
   24   14   15 ar    
   25   14   28 1     
   26   15   16 ar    
   27   15   29 1     
   28   16   17 1     
   29   17   18 ar    
   30   17   19 ar    
@<TRIPOS>SUBSTRUCTURE
      1 ****           1
@<TRIPOS>SET
DONOR_HYDROGENS      STATIC     ATOMS    <user>   **** ""
2 20 21
ATOM$RED        STATIC     ATOMS    COLORGROUP SYSTEM
2 20 21
