#       Name:                1N7
#       Creating user name   gbret
#       Creation time:       Thu Sep  8 20:24:03 2016


#       File generated by GOLD software.
#

@<TRIPOS>MOLECULE
1N7
   101   104     1
SMALL
NO_CHARGES


@<TRIPOS>ATOM
      1 C1          -0.5573   3.7704  -2.4203 C.3            1 <1>                0.0000
      2 C2          -0.8809   2.2857  -2.2414 C.3            1 <1>                0.0000
      3 C3          -0.4824   1.8431  -0.8321 C.3            1 <1>                0.0000
      4 C4           0.9724   2.2354  -0.5665 C.3            1 <1>                0.0000
      5 C5           1.3648   1.7994   0.8217 C.2            1 <1>                0.0000
      6 O6           0.5601   1.2309   1.5289 O.2            1 <1>                0.0000
      7 N7           2.6100   2.0413   1.2772 N.am           1 <1>                0.0000
      8 C8           2.9915   1.6175   2.6267 C.3            1 <1>                0.0000
      9 C9           4.4463   2.0098   2.8923 C.3            1 <1>                0.0000
     10 C10          4.8447   1.5672   4.3016 C.3            1 <1>                0.0000
     11 N11          6.2415   1.9439   4.5566 N.4            1 <1>                0.0000
     12 C12          7.1130   1.2879   3.5726 C.3            1 <1>                0.0000
     13 C13          6.3843   3.4015   4.4424 C.3            1 <1>                0.0000
     14 C14          6.6241   1.5189   5.9098 C.3            1 <1>                0.0000
     15 C15          8.1114   1.8008   6.1314 C.3            1 <1>                0.0000
     16 O16          8.3301   3.2127   6.1569 O.3            1 <1>                0.0000
     17 C17          8.5527   1.1923   7.4641 C.3            1 <1>                0.0000
     18 S18         10.3162   1.5264   7.7269 S.o2           1 <1>                0.0000
     19 O19         10.5223   2.9662   7.7503 O.co2          1 <1>                0.0000
     20 O20         10.7201   0.9423   8.9964 O.co2          1 <1>                0.0000
     21 O21         11.0740   0.9300   6.6379 O.co2          1 <1>                0.0000
     22 C22         -2.3814   2.0631  -2.4408 C.3            1 <1>                0.0000
     23 C23         -2.8009   2.4830  -3.8716 C.3            1 <1>                0.0000
     24 C24         -3.4470   1.2303  -4.5241 C.3            1 <1>                0.0000
     25 C25         -3.9145   0.4159  -3.3130 C.3            1 <1>                0.0000
     26 C26         -4.1001  -1.0717  -3.5463 C.3            1 <1>                0.0000
     27 C27         -5.2190  -1.3153  -4.5601 C.3            1 <1>                0.0000
     28 O28         -4.8616  -0.7300  -5.8139 O.3            1 <1>                0.0000
     29 C29         -5.4248  -2.8208  -4.7402 C.3            1 <1>                0.0000
     30 C30         -5.8090  -3.4485  -3.3990 C.3            1 <1>                0.0000
     31 C31         -6.0140  -4.9537  -3.5796 C.3            1 <1>                0.0000
     32 C32         -6.4001  -5.5803  -2.2382 C.3            1 <1>                0.0000
     33 O33         -6.5928  -6.9862  -2.4068 O.3            1 <1>                0.0000
     34 C34         -5.2824  -5.3367  -1.2221 C.3            1 <1>                0.0000
     35 C35         -5.0774  -3.8316  -1.0407 C.3            1 <1>                0.0000
     36 C36         -4.6927  -3.2028  -2.3815 C.3            1 <1>                0.0000
     37 C37         -3.3933  -3.8329  -2.8869 C.3            1 <1>                0.0000
     38 C38         -4.4951  -1.6973  -2.1996 C.3            1 <1>                0.0000
     39 C39         -3.4417  -1.4341  -1.1291 C.3            1 <1>                0.0000
     40 C40         -3.1540   0.0699  -0.9844 C.3            1 <1>                0.0000
     41 O41         -2.1133   0.2759  -0.0271 O.3            1 <1>                0.0000
     42 C42         -2.7129   0.5776  -2.3431 C.3            1 <1>                0.0000
     43 C43         -1.5285  -0.2507  -2.8450 C.3            1 <1>                0.0000
     44 H44          0.5117   3.9289  -2.2783 H              1 <1>                0.0000
     45 H45         -0.8412   4.0857  -3.4243 H              1 <1>                0.0000
     46 H46         -1.1120   4.3542  -1.6857 H              1 <1>                0.0000
     47 H47         -0.3262   1.7019  -2.9760 H              1 <1>                0.0000
     48 H48         -1.1291   2.3298  -0.1020 H              1 <1>                0.0000
     49 H49         -0.5884   0.7616  -0.7474 H              1 <1>                0.0000
     50 H50          1.6190   1.7487  -1.2966 H              1 <1>                0.0000
     51 H51          1.0783   3.3169  -0.6512 H              1 <1>                0.0000
     52 H52          3.2536   2.4960   0.7115 H              1 <1>                0.0000
     53 H53          2.3448   2.1042   3.3568 H              1 <1>                0.0000
     54 H54          2.8856   0.5360   2.7114 H              1 <1>                0.0000
     55 H55          5.0929   1.5231   2.1621 H              1 <1>                0.0000
     56 H56          4.5522   3.0913   2.8075 H              1 <1>                0.0000
     57 H57          4.1981   2.0539   5.0317 H              1 <1>                0.0000
     58 H58          4.7388   0.4857   4.3863 H              1 <1>                0.0000
     59 H59          6.8292   1.6033   2.5686 H              1 <1>                0.0000
     60 H60          8.1494   1.5674   3.7618 H              1 <1>                0.0000
     61 H61          7.0071   0.2064   3.6574 H              1 <1>                0.0000
     62 H62          5.8540   3.8839   5.2635 H              1 <1>                0.0000
     63 H63          7.4404   3.6676   4.4858 H              1 <1>                0.0000
     64 H64          5.9644   3.7344   3.4933 H              1 <1>                0.0000
     65 H65          6.0364   2.0705   6.6436 H              1 <1>                0.0000
     66 H66          6.4359   0.4512   6.0220 H              1 <1>                0.0000
     67 H67          8.6899   1.3581   5.3206 H              1 <1>                0.0000
     68 H68          7.8452   3.6733   6.8553 H              1 <1>                0.0000
     69 H69          7.9743   1.6350   8.2749 H              1 <1>                0.0000
     70 H70          8.3860   0.1153   7.4447 H              1 <1>                0.0000
     71 H71         -2.9480   2.6261  -1.6990 H              1 <1>                0.0000
     72 H72         -3.5251   3.2964  -3.8257 H              1 <1>                0.0000
     73 H73         -1.9255   2.7927  -4.4425 H              1 <1>                0.0000
     74 H74         -4.2942   1.5141  -5.1484 H              1 <1>                0.0000
     75 H75         -2.7099   0.6731  -5.1023 H              1 <1>                0.0000
     76 H76         -4.8135   0.8575  -2.8829 H              1 <1>                0.0000
     77 H77         -3.1648  -1.5092  -3.8957 H              1 <1>                0.0000
     78 H78         -6.1422  -0.8630  -4.1980 H              1 <1>                0.0000
     79 H79         -5.5268  -0.8461  -6.5060 H              1 <1>                0.0000
     80 H80         -6.2213  -2.9944  -5.4638 H              1 <1>                0.0000
     81 H81         -4.5012  -3.2729  -5.1016 H              1 <1>                0.0000
     82 H82         -6.7339  -2.9980  -3.0390 H              1 <1>                0.0000
     83 H83         -6.8094  -5.1277  -4.3043 H              1 <1>                0.0000
     84 H84         -5.0897  -5.4058  -3.9391 H              1 <1>                0.0000
     85 H85         -7.3239  -5.1275  -1.8780 H              1 <1>                0.0000
     86 H86         -6.8401  -7.4494  -1.5948 H              1 <1>                0.0000
     87 H87         -5.5563  -5.7839  -0.2665 H              1 <1>                0.0000
     88 H88         -4.3584  -5.7884  -1.5831 H              1 <1>                0.0000
     89 H89         -6.0015  -3.3801  -0.6796 H              1 <1>                0.0000
     90 H90         -4.2815  -3.6581  -0.3165 H              1 <1>                0.0000
     91 H91         -3.5361  -4.9056  -3.0166 H              1 <1>                0.0000
     92 H92         -3.1196  -3.3846  -3.8420 H              1 <1>                0.0000
     93 H93         -2.5984  -3.6572  -2.1620 H              1 <1>                0.0000
     94 H94         -5.4354  -1.2563  -1.8688 H              1 <1>                0.0000
     95 H95         -3.7979  -1.8225  -0.1750 H              1 <1>                0.0000
     96 H96         -2.5203  -1.9490  -1.4010 H              1 <1>                0.0000
     97 H97         -4.0573   0.5914  -0.6678 H              1 <1>                0.0000
     98 H98         -2.3202  -0.0575   0.8567 H              1 <1>                0.0000
     99 H99         -1.8424  -1.2849  -2.9864 H              1 <1>                0.0000
    100 H100        -1.1772   0.1553  -3.7936 H              1 <1>                0.0000
    101 H101        -0.7221  -0.2126  -2.1126 H              1 <1>                0.0000
@<TRIPOS>BOND
    1    1    2 1     
    2    1   44 1     
    3    1   45 1     
    4    1   46 1     
    5    2    3 1     
    6    2   22 1     
    7    2   47 1     
    8    3    4 1     
    9    3   48 1     
   10    3   49 1     
   11    4    5 1     
   12    4   50 1     
   13    4   51 1     
   14    5    6 2     
   15    5    7 am    
   16    7    8 1     
   17    7   52 1     
   18    8    9 1     
   19    8   53 1     
   20    8   54 1     
   21    9   10 1     
   22    9   55 1     
   23    9   56 1     
   24   10   11 1     
   25   10   57 1     
   26   10   58 1     
   27   11   12 1     
   28   11   13 1     
   29   11   14 1     
   30   12   59 1     
   31   12   60 1     
   32   12   61 1     
   33   13   62 1     
   34   13   63 1     
   35   13   64 1     
   36   14   15 1     
   37   14   65 1     
   38   14   66 1     
   39   15   16 1     
   40   15   17 1     
   41   15   67 1     
   42   16   68 1     
   43   17   18 1     
   44   17   69 1     
   45   17   70 1     
   46   18   19 ar    
   47   18   20 ar    
   48   18   21 ar    
   49   22   42 1     
   50   22   23 1     
   51   22   71 1     
   52   23   24 1     
   53   23   72 1     
   54   23   73 1     
   55   24   25 1     
   56   24   74 1     
   57   24   75 1     
   58   25   42 1     
   59   25   26 1     
   60   25   76 1     
   61   26   38 1     
   62   26   27 1     
   63   26   77 1     
   64   27   28 1     
   65   27   29 1     
   66   27   78 1     
   67   28   79 1     
   68   29   30 1     
   69   29   80 1     
   70   29   81 1     
   71   30   36 1     
   72   30   31 1     
   73   30   82 1     
   74   31   32 1     
   75   31   83 1     
   76   31   84 1     
   77   32   33 1     
   78   32   34 1     
   79   32   85 1     
   80   33   86 1     
   81   34   35 1     
   82   34   87 1     
   83   34   88 1     
   84   35   36 1     
   85   35   89 1     
   86   35   90 1     
   87   36   37 1     
   88   36   38 1     
   89   37   91 1     
   90   37   92 1     
   91   37   93 1     
   92   38   39 1     
   93   38   94 1     
   94   39   40 1     
   95   39   95 1     
   96   39   96 1     
   97   40   41 1     
   98   40   42 1     
   99   40   97 1     
  100   41   98 1     
  101   42   43 1     
  102   43   99 1     
  103   43  100 1     
  104   43  101 1     
@<TRIPOS>SUBSTRUCTURE
      1 ****           1
@<TRIPOS>SET
DONOR_HYDROGENS      STATIC     ATOMS    <user>   **** ""
5 52 68 79 86 98
ATOM$RED        STATIC     ATOMS    COLORGROUP SYSTEM
5 52 68 79 86 98
