#       Name:                1PH
#       Creating user name   gbret
#       Creation time:       Thu Sep  8 20:29:27 2016


#       File generated by GOLD software.
#

@<TRIPOS>MOLECULE
1PH
    47    50     1
SMALL
NO_CHARGES


@<TRIPOS>ATOM
      1 N1          -7.1202   0.9288  -2.4434 N.pl3          1 <1>                0.0000
      2 S2          -6.9782  -0.7105  -2.2562 S.o2           1 <1>                0.0000
      3 O3          -7.5819  -1.0257  -1.0090 O.2            1 <1>                0.0000
      4 O4          -7.3872  -1.2918  -3.4867 O.2            1 <1>                0.0000
      5 C5          -5.2618  -1.0689  -2.0828 C.ar           1 <1>                0.0000
      6 C6          -4.4946  -1.3315  -3.2045 C.ar           1 <1>                0.0000
      7 C7          -3.1460  -1.6139  -3.0780 C.ar           1 <1>                0.0000
      8 C8          -2.5566  -1.6361  -1.8311 C.ar           1 <1>                0.0000
      9 C9          -3.3247  -1.3720  -0.6944 C.ar           1 <1>                0.0000
     10 C10         -4.6849  -1.0816  -0.8304 C.ar           1 <1>                0.0000
     11 C11         -2.7015  -1.3939   0.6428 C.2            1 <1>                0.0000
     12 N12         -3.2036  -1.9857   1.7481 N.pl3          1 <1>                0.0000
     13 H13         -4.0429  -2.4704   1.7886 H              1 <1>                0.0000
     14 N14         -2.3322  -1.7951   2.8259 N.2            1 <1>                0.0000
     15 C15         -1.2866  -1.0931   2.4239 C.ar           1 <1>                0.0000
     16 C16         -0.1191  -0.6108   3.0551 C.ar           1 <1>                0.0000
     17 C17          0.7864   0.0999   2.3389 C.ar           1 <1>                0.0000
     18 C18          0.5974   0.3739   0.9777 C.ar           1 <1>                0.0000
     19 N19          1.5657   1.1133   0.2878 N.am           1 <1>                0.0000
     20 C20          2.8680   0.9846   0.6102 C.2            1 <1>                0.0000
     21 O21          3.2111   0.1595   1.4304 O.2            1 <1>                0.0000
     22 C22          3.8980   1.8658  -0.0484 C.3            1 <1>                0.0000
     23 C23          5.2659   1.5231   0.4829 C.ar           1 <1>                0.0000
     24 C24          5.7554   2.1717   1.6012 C.ar           1 <1>                0.0000
     25 C25          7.0102   1.8574   2.0887 C.ar           1 <1>                0.0000
     26 C26          7.7754   0.8942   1.4580 C.ar           1 <1>                0.0000
     27 C27          7.2855   0.2450   0.3402 C.ar           1 <1>                0.0000
     28 C28          6.0290   0.5562  -0.1447 C.ar           1 <1>                0.0000
     29 C29         -0.5084  -0.0636   0.3092 C.ar           1 <1>                0.0000
     30 C30         -1.4821  -0.8116   0.9950 C.ar           1 <1>                0.0000
     31 H31         -6.3274   1.4877  -2.4411 H              1 <1>                0.0000
     32 H32         -7.9959   1.3297  -2.5593 H              1 <1>                0.0000
     33 H33         -4.9509  -1.3162  -4.1833 H              1 <1>                0.0000
     34 H34         -2.5535  -1.8178  -3.9576 H              1 <1>                0.0000
     35 H35         -1.5040  -1.8574  -1.7337 H              1 <1>                0.0000
     36 H36         -5.2847  -0.8765   0.0440 H              1 <1>                0.0000
     37 H37          0.0515  -0.8069   4.1034 H              1 <1>                0.0000
     38 H38          1.6763   0.4647   2.8303 H              1 <1>                0.0000
     39 H39          1.2993   1.7183  -0.4221 H              1 <1>                0.0000
     40 H40          3.8766   1.7064  -1.1265 H              1 <1>                0.0000
     41 H41          3.6749   2.9103   0.1689 H              1 <1>                0.0000
     42 H42          5.1576   2.9242   2.0940 H              1 <1>                0.0000
     43 H43          7.3929   2.3646   2.9620 H              1 <1>                0.0000
     44 H44          8.7560   0.6491   1.8384 H              1 <1>                0.0000
     45 H45          7.8834  -0.5073  -0.1527 H              1 <1>                0.0000
     46 H46          5.6462   0.0491  -1.0180 H              1 <1>                0.0000
     47 H47         -0.6332   0.1594  -0.7401 H              1 <1>                0.0000
@<TRIPOS>BOND
    1    1    2 1     
    2    1   31 1     
    3    1   32 1     
    4    2    3 2     
    5    2    4 2     
    6    2    5 1     
    7    5   10 ar    
    8    5    6 ar    
    9    6    7 ar    
   10    6   33 1     
   11    7    8 ar    
   12    7   34 1     
   13    8    9 ar    
   14    8   35 1     
   15    9   10 ar    
   16    9   11 1     
   17   10   36 1     
   18   11   30 2     
   19   11   12 1     
   20   12   13 1     
   21   12   14 1     
   22   14   15 2     
   23   15   30 ar    
   24   15   16 ar    
   25   16   17 ar    
   26   16   37 1     
   27   17   18 ar    
   28   17   38 1     
   29   18   19 1     
   30   18   29 ar    
   31   19   20 am    
   32   19   39 1     
   33   20   21 2     
   34   20   22 1     
   35   22   23 1     
   36   22   40 1     
   37   22   41 1     
   38   23   28 ar    
   39   23   24 ar    
   40   24   25 ar    
   41   24   42 1     
   42   25   26 ar    
   43   25   43 1     
   44   26   27 ar    
   45   26   44 1     
   46   27   28 ar    
   47   27   45 1     
   48   28   46 1     
   49   29   30 ar    
   50   29   47 1     
@<TRIPOS>SUBSTRUCTURE
      1 ****           1
@<TRIPOS>SET
DONOR_HYDROGENS      STATIC     ATOMS    <user>   **** ""
4 31 32 13 39
ATOM$RED        STATIC     ATOMS    COLORGROUP SYSTEM
4 31 32 13 39
