#       Name:                1PQ
#       Creating user name   gbret
#       Creation time:       Thu Sep  8 20:30:04 2016


#       File generated by GOLD software.
#

@<TRIPOS>MOLECULE
1PQ
    41    42     1
SMALL
NO_CHARGES


@<TRIPOS>ATOM
      1 C1          -0.6960   4.7173  -2.3087 C.3            1 <1>                0.0000
      2 O2          -0.6766   3.2884  -2.3166 O.3            1 <1>                0.0000
      3 C3          -0.0530   2.6742  -1.2772 C.ar           1 <1>                0.0000
      4 C4           0.0037   1.2793  -1.2322 C.ar           1 <1>                0.0000
      5 C5           0.6294   0.6330  -0.1908 C.ar           1 <1>                0.0000
      6 N6           0.6784  -0.7599  -0.1595 N.pl3          1 <1>                0.0000
      7 C7           0.0631  -1.5389  -1.2369 C.3            1 <1>                0.0000
      8 C8           1.0524  -1.6763  -2.3960 C.3            1 <1>                0.0000
      9 C9          -0.3065  -2.9286  -0.7145 C.3            1 <1>                0.0000
     10 C10         -1.3883  -2.7985   0.3597 C.3            1 <1>                0.0000
     11 C11         -1.7580  -4.1882   0.8821 C.3            1 <1>                0.0000
     12 N12         -2.7966  -4.0633   1.9134 N.4            1 <1>                0.0000
     13 H13         -3.6140  -3.6249   1.5162 H              1 <1>                0.0000
     14 H14         -3.0404  -4.9798   2.2579 H              1 <1>                0.0000
     15 H15         -2.4489  -3.4994   2.6744 H              1 <1>                0.0000
     16 C16          1.2223   1.3874   0.8466 C.ar           1 <1>                0.0000
     17 N17          1.8362   0.7853   1.8687 N.ar           1 <1>                0.0000
     18 C18          2.3894   1.4765   2.8354 C.ar           1 <1>                0.0000
     19 C19          2.3655   2.8696   2.8465 C.ar           1 <1>                0.0000
     20 C20          1.7541   3.5482   1.8314 C.ar           1 <1>                0.0000
     21 C21          1.1612   2.8013   0.7950 C.ar           1 <1>                0.0000
     22 C22          0.5211   3.4333  -0.2828 C.ar           1 <1>                0.0000
     23 H23          0.3266   5.0946  -2.3165 H              1 <1>                0.0000
     24 H24         -1.2232   5.0784  -3.1918 H              1 <1>                0.0000
     25 H25         -1.2062   5.0688  -1.4119 H              1 <1>                0.0000
     26 H26         -0.4492   0.7010  -2.0240 H              1 <1>                0.0000
     27 H27          1.1200  -1.2133   0.5756 H              1 <1>                0.0000
     28 H28         -0.8360  -1.0305  -1.5850 H              1 <1>                0.0000
     29 H29          0.5946  -2.2559  -3.1976 H              1 <1>                0.0000
     30 H30          1.3157  -0.6862  -2.7682 H              1 <1>                0.0000
     31 H31          1.9515  -2.1846  -2.0479 H              1 <1>                0.0000
     32 H32         -0.6822  -3.5377  -1.5366 H              1 <1>                0.0000
     33 H33          0.5765  -3.4022  -0.2854 H              1 <1>                0.0000
     34 H34         -1.0126  -2.1893   1.1818 H              1 <1>                0.0000
     35 H35         -2.2713  -2.3249  -0.0695 H              1 <1>                0.0000
     36 H36         -2.1337  -4.7974   0.0600 H              1 <1>                0.0000
     37 H37         -0.8750  -4.6618   1.3112 H              1 <1>                0.0000
     38 H38          2.8761   0.9525   3.6447 H              1 <1>                0.0000
     39 H39          2.8297   3.4119   3.6570 H              1 <1>                0.0000
     40 H40          1.7256   4.6278   1.8237 H              1 <1>                0.0000
     41 H41          0.4761   4.5114  -0.3298 H              1 <1>                0.0000
@<TRIPOS>BOND
    1    1    2 1     
    2    1   23 1     
    3    1   24 1     
    4    1   25 1     
    5    2    3 1     
    6    3   22 ar    
    7    3    4 ar    
    8    4    5 ar    
    9    4   26 1     
   10    5    6 1     
   11    5   16 ar    
   12    6    7 1     
   13    6   27 1     
   14    7    8 1     
   15    7    9 1     
   16    7   28 1     
   17    8   29 1     
   18    8   30 1     
   19    8   31 1     
   20    9   10 1     
   21    9   32 1     
   22    9   33 1     
   23   10   11 1     
   24   10   34 1     
   25   10   35 1     
   26   11   12 1     
   27   11   36 1     
   28   11   37 1     
   29   12   13 1     
   30   12   14 1     
   31   12   15 1     
   32   16   21 ar    
   33   16   17 ar    
   34   17   18 ar    
   35   18   19 ar    
   36   18   38 1     
   37   19   20 ar    
   38   19   39 1     
   39   20   21 ar    
   40   20   40 1     
   41   21   22 ar    
   42   22   41 1     
@<TRIPOS>SUBSTRUCTURE
      1 ****           1
@<TRIPOS>SET
DONOR_HYDROGENS      STATIC     ATOMS    <user>   **** ""
4 27 13 14 15
ATOM$RED        STATIC     ATOMS    COLORGROUP SYSTEM
4 27 13 14 15
