#       Name:                1QV
#       Creating user name   gbret
#       Creation time:       Thu Sep  8 20:32:35 2016


#       File generated by GOLD software.
#

@<TRIPOS>MOLECULE
1QV
    19    20     1
SMALL
NO_CHARGES


@<TRIPOS>ATOM
      1 N1          -3.2536   2.0141   0.0392 N.pl3          1 <1>                0.0000
      2 S2          -3.2311   0.3582   0.0301 S.o2           1 <1>                0.0000
      3 O3          -3.7581  -0.0571   1.2827 O.2            1 <1>                0.0000
      4 O4          -3.7820  -0.0437  -1.2166 O.2            1 <1>                0.0000
      5 C5          -1.5412  -0.1404   0.0113 C.2            1 <1>                0.0000
      6 N6          -0.5518   0.6699   0.0117 N.2            1 <1>                0.0000
      7 C7           0.6899   0.1467  -0.0029 C.ar           1 <1>                0.0000
      8 C8           1.9415   0.8002  -0.0065 C.ar           1 <1>                0.0000
      9 F9           1.9950   2.1501   0.0069 F              1 <1>                0.0000
     10 C10          3.1060   0.0696  -0.0230 C.ar           1 <1>                0.0000
     11 F11          4.2970   0.7074  -0.0258 F              1 <1>                0.0000
     12 C12          3.0682  -1.3212  -0.0365 C.ar           1 <1>                0.0000
     13 F13          4.2194  -2.0281  -0.0523 F              1 <1>                0.0000
     14 C14          1.8553  -1.9783  -0.0333 C.ar           1 <1>                0.0000
     15 F15          1.8201  -3.3288  -0.0464 F              1 <1>                0.0000
     16 C16          0.6648  -1.2508  -0.0166 C.ar           1 <1>                0.0000
     17 S17         -1.0195  -1.7650  -0.0024 S.3            1 <1>                0.0000
     18 H18         -2.4202   2.5104   0.0339 H              1 <1>                0.0000
     19 H19         -4.1001   2.4876   0.0458 H              1 <1>                0.0000
@<TRIPOS>BOND
    1    1    2 1     
    2    1   18 1     
    3    1   19 1     
    4    2    3 2     
    5    2    4 2     
    6    2    5 1     
    7    5   17 1     
    8    5    6 2     
    9    6    7 1     
   10    7   16 ar    
   11    7    8 ar    
   12    8    9 1     
   13    8   10 ar    
   14   10   11 1     
   15   10   12 ar    
   16   12   13 1     
   17   12   14 ar    
   18   14   15 1     
   19   14   16 ar    
   20   16   17 1     
@<TRIPOS>SUBSTRUCTURE
      1 ****           1
@<TRIPOS>SET
DONOR_HYDROGENS      STATIC     ATOMS    <user>   **** ""
2 18 19
ATOM$RED        STATIC     ATOMS    COLORGROUP SYSTEM
2 18 19
