#       Name:                1TP
#       Creating user name   gbret
#       Creation time:       Thu Sep  8 20:38:24 2016


#       File generated by GOLD software.
#

@<TRIPOS>MOLECULE
1TP
    55    56     1
SMALL
NO_CHARGES


@<TRIPOS>ATOM
      1 C1          -0.4085   1.4499  -0.2638 C.3            1 <1>                0.0000
      2 C2          -0.6498  -0.0174   0.0964 C.3            1 <1>                0.0000
      3 C3          -0.0026  -0.9068  -0.9825 C.3            1 <1>                0.0000
      4 C4           0.6354  -0.0486  -2.0767 C.3            1 <1>                0.0000
      5 C5           1.1593  -0.9532  -3.1938 C.3            1 <1>                0.0000
      6 O6           1.7552  -0.1516  -4.2158 O.3            1 <1>                0.0000
      7 P7           2.4122  -0.7743  -5.5472 P.3            1 <1>                0.0000
      8 O8           3.6450  -1.6233  -5.1646 O.co2          1 <1>                0.0000
      9 O9           1.3748  -1.6668  -6.2645 O.co2          1 <1>                0.0000
     10 O10          2.8655   0.4177  -6.5300 O.3            1 <1>                0.0000
     11 P11          3.1867   0.5075  -8.1050 P.3            1 <1>                0.0000
     12 O12          1.8442   0.5973  -8.9075 O.co2          1 <1>                0.0000
     13 O13          4.0515   1.7825  -8.3897 O.co2          1 <1>                0.0000
     14 O14          3.9770  -0.7697  -8.5506 O.co2          1 <1>                0.0000
     15 S15          1.2836  -1.8361  -0.0570 S.3            1 <1>                0.0000
     16 C16          1.3165  -0.6763   1.3725 C.3            1 <1>                0.0000
     17 N17         -0.1149  -0.2690   1.4379 N.4            1 <1>                0.0000
     18 H18         -0.6493  -1.0047   1.8753 H              1 <1>                0.0000
     19 C19         -0.2321   0.9562   2.2398 C.3            1 <1>                0.0000
     20 C20         -1.6866   1.3201   2.3914 C.ar           1 <1>                0.0000
     21 C21         -2.1612   2.5392   1.9485 C.ar           1 <1>                0.0000
     22 N22         -3.4466   2.8258   2.0982 N.ar           1 <1>                0.0000
     23 C23         -4.2727   1.9670   2.6611 C.ar           1 <1>                0.0000
     24 C24         -5.7258   2.3377   2.8094 C.3            1 <1>                0.0000
     25 N25         -3.8635   0.7931   3.0975 N.ar           1 <1>                0.0000
     26 C26         -2.5894   0.4310   2.9780 C.ar           1 <1>                0.0000
     27 N27         -2.1626  -0.8041   3.4380 N.pl3          1 <1>                0.0000
     28 C28          1.7453  -1.3929   2.6545 C.3            1 <1>                0.0000
     29 C29          3.1783  -1.9055   2.4974 C.3            1 <1>                0.0000
     30 O30          1.6833  -0.4813   3.7532 O.3            1 <1>                0.0000
     31 C31          0.8215  -2.5551   2.9133 C.2            1 <1>                0.0000
     32 O32          0.7253  -3.4517   2.0928 O.co2          1 <1>                0.0000
     33 O33          0.1705  -2.5987   3.9432 O.co2          1 <1>                0.0000
     34 H34          0.6540   1.6761  -0.1738 H              1 <1>                0.0000
     35 H35         -0.7329   1.6305  -1.2887 H              1 <1>                0.0000
     36 H36         -0.9747   2.0883   0.4143 H              1 <1>                0.0000
     37 H37         -1.7236  -0.2044   0.1053 H              1 <1>                0.0000
     38 H38         -0.7383  -1.5878  -1.4105 H              1 <1>                0.0000
     39 H39         -0.1098   0.6356  -2.4825 H              1 <1>                0.0000
     40 H40          1.4618   0.5231  -1.6544 H              1 <1>                0.0000
     41 H41          1.9044  -1.6374  -2.7879 H              1 <1>                0.0000
     42 H42          0.3329  -1.5249  -3.6161 H              1 <1>                0.0000
     43 H43          1.9598   0.1799   1.1691 H              1 <1>                0.0000
     44 H44          0.2052   0.7893   3.2242 H              1 <1>                0.0000
     45 H45          0.2957   1.7689   1.7408 H              1 <1>                0.0000
     46 H46         -1.4929   3.2505   1.4860 H              1 <1>                0.0000
     47 H47         -6.2752   2.0153   1.9249 H              1 <1>                0.0000
     48 H48         -6.1376   1.8476   3.6916 H              1 <1>                0.0000
     49 H49         -5.8157   3.4185   2.9190 H              1 <1>                0.0000
     50 H50         -1.2299  -1.0572   3.3539 H              1 <1>                0.0000
     51 H51         -2.7963  -1.4158   3.8443 H              1 <1>                0.0000
     52 H52          3.8464  -1.0649   2.3102 H              1 <1>                0.0000
     53 H53          3.4837  -2.4160   3.4107 H              1 <1>                0.0000
     54 H54          3.2255  -2.6008   1.6593 H              1 <1>                0.0000
     55 H55          0.7930  -0.3534   4.1085 H              1 <1>                0.0000
@<TRIPOS>BOND
    1    1    2 1     
    2    1   34 1     
    3    1   35 1     
    4    1   36 1     
    5    2   17 1     
    6    2    3 1     
    7    2   37 1     
    8    3    4 1     
    9    3   15 1     
   10    3   38 1     
   11    4    5 1     
   12    4   39 1     
   13    4   40 1     
   14    5    6 1     
   15    5   41 1     
   16    5   42 1     
   17    6    7 1     
   18    7    8 ar    
   19    7    9 ar    
   20    7   10 1     
   21   10   11 1     
   22   11   12 ar    
   23   11   13 ar    
   24   11   14 ar    
   25   15   16 1     
   26   16   17 1     
   27   16   28 1     
   28   16   43 1     
   29   17   18 1     
   30   17   19 1     
   31   19   20 1     
   32   19   44 1     
   33   19   45 1     
   34   20   26 ar    
   35   20   21 ar    
   36   21   22 ar    
   37   21   46 1     
   38   22   23 ar    
   39   23   24 1     
   40   23   25 ar    
   41   24   47 1     
   42   24   48 1     
   43   24   49 1     
   44   25   26 ar    
   45   26   27 1     
   46   27   50 1     
   47   27   51 1     
   48   28   29 1     
   49   28   30 1     
   50   28   31 1     
   51   29   52 1     
   52   29   53 1     
   53   29   54 1     
   54   30   55 1     
   55   31   32 ar    
   56   31   33 ar    
@<TRIPOS>SUBSTRUCTURE
      1 ****           1
@<TRIPOS>SET
DONOR_HYDROGENS      STATIC     ATOMS    <user>   **** ""
4 18 50 51 55
ATOM$RED        STATIC     ATOMS    COLORGROUP SYSTEM
4 18 50 51 55
