#       Name:                1UD
#       Creating user name   gbret
#       Creation time:       Thu Sep  8 20:39:49 2016


#       File generated by GOLD software.
#

@<TRIPOS>MOLECULE
1UD
    53    56     1
SMALL
NO_CHARGES


@<TRIPOS>ATOM
      1 C1          -2.0822   5.7620  -1.2457 C.3            1 <1>                0.0000
      2 N2          -2.0623   4.2971  -1.2538 N.pl3          1 <1>                0.0000
      3 C3          -1.4471   3.6114  -0.2308 C.2            1 <1>                0.0000
      4 N4          -1.3665   2.3060  -0.1426 N.2            1 <1>                0.0000
      5 C5          -0.6964   1.9628   0.9869 C.ar           1 <1>                0.0000
      6 C6          -0.3424   0.7339   1.5431 C.ar           1 <1>                0.0000
      7 C7          -0.7208  -0.5489   0.8487 C.3            1 <1>                0.0000
      8 C8           0.3952  -0.9550  -0.1159 C.3            1 <1>                0.0000
      9 C9           0.0111  -2.2575  -0.8209 C.3            1 <1>                0.0000
     10 O10         -1.0796  -2.0291  -1.7396 O.3            1 <1>                0.0000
     11 C11         -1.0284  -3.1306  -2.6724 C.3            1 <1>                0.0000
     12 O12         -1.7166  -2.7934  -3.8785 O.3            1 <1>                0.0000
     13 C13         -3.1258  -2.6216  -3.7151 C.3            1 <1>                0.0000
     14 C14          0.4761  -3.3410  -2.9524 C.3            1 <1>                0.0000
     15 O15          0.8704  -2.6321  -4.1289 O.3            1 <1>                0.0000
     16 C16          1.1757  -2.7534  -1.7064 C.3            1 <1>                0.0000
     17 O17          2.0234  -1.6637  -2.0753 O.3            1 <1>                0.0000
     18 C18          3.3705  -2.0459  -2.3604 C.3            1 <1>                0.0000
     19 C19          0.3614   0.6985   2.7408 C.ar           1 <1>                0.0000
     20 N20          0.7228  -0.4800   3.3106 N.2            1 <1>                0.0000
     21 C21          1.3855  -0.5198   4.4375 C.2            1 <1>                0.0000
     22 N22          1.7187  -1.7463   4.9573 N.pl3          1 <1>                0.0000
     23 N23          1.7622   0.6006   5.1213 N.am           1 <1>                0.0000
     24 H24          2.2535   0.5133   5.9531 H              1 <1>                0.0000
     25 C25          1.4571   1.8310   4.6493 C.2            1 <1>                0.0000
     26 O26          1.7882   2.8367   5.2504 O.2            1 <1>                0.0000
     27 C27          0.7131   1.9106   3.3864 C.ar           1 <1>                0.0000
     28 C28          0.3571   3.1362   2.8264 C.ar           1 <1>                0.0000
     29 C29         -0.3415   3.1637   1.6372 C.ar           1 <1>                0.0000
     30 N30         -0.8264   4.1909   0.8375 N.pl3          1 <1>                0.0000
     31 H31         -0.7408   5.1421   1.0073 H              1 <1>                0.0000
     32 H32         -1.0596   6.1393  -1.2535 H              1 <1>                0.0000
     33 H33         -2.6094   6.1231  -2.1288 H              1 <1>                0.0000
     34 H34         -2.5924   6.1135  -0.3489 H              1 <1>                0.0000
     35 H35         -2.4827   3.8104  -1.9799 H              1 <1>                0.0000
     36 H36         -0.8639  -1.3349   1.5902 H              1 <1>                0.0000
     37 H37         -1.6463  -0.4015   0.2922 H              1 <1>                0.0000
     38 H38          0.5384  -0.1691  -0.8574 H              1 <1>                0.0000
     39 H39          1.3208  -1.1024   0.4406 H              1 <1>                0.0000
     40 H40         -0.2599  -3.0185  -0.0892 H              1 <1>                0.0000
     41 H41         -1.4620  -4.0258  -2.2266 H              1 <1>                0.0000
     42 H42         -3.5640  -3.5476  -3.3429 H              1 <1>                0.0000
     43 H43         -3.3136  -1.8185  -3.0025 H              1 <1>                0.0000
     44 H44         -3.5746  -2.3675  -4.6754 H              1 <1>                0.0000
     45 H45          0.7009  -4.4027  -3.0541 H              1 <1>                0.0000
     46 H46          0.4160  -2.9202  -4.9325 H              1 <1>                0.0000
     47 H47          1.7467  -3.5247  -1.1897 H              1 <1>                0.0000
     48 H48          3.8105  -2.5114  -1.4785 H              1 <1>                0.0000
     49 H49          3.3795  -2.7549  -3.1882 H              1 <1>                0.0000
     50 H50          3.9490  -1.1629  -2.6320 H              1 <1>                0.0000
     51 H51          1.4628  -2.5569   4.4900 H              1 <1>                0.0000
     52 H52          2.2101  -1.8021   5.7918 H              1 <1>                0.0000
     53 H53          0.6263   4.0582   3.3202 H              1 <1>                0.0000
@<TRIPOS>BOND
    1    1    2 1     
    2    1   32 1     
    3    1   33 1     
    4    1   34 1     
    5    2    3 1     
    6    2   35 1     
    7    3   30 1     
    8    3    4 2     
    9    4    5 1     
   10    5   29 ar    
   11    5    6 ar    
   12    6    7 1     
   13    6   19 ar    
   14    7    8 1     
   15    7   36 1     
   16    7   37 1     
   17    8    9 1     
   18    8   38 1     
   19    8   39 1     
   20    9   16 1     
   21    9   10 1     
   22    9   40 1     
   23   10   11 1     
   24   11   12 1     
   25   11   14 1     
   26   11   41 1     
   27   12   13 1     
   28   13   42 1     
   29   13   43 1     
   30   13   44 1     
   31   14   15 1     
   32   14   16 1     
   33   14   45 1     
   34   15   46 1     
   35   16   17 1     
   36   16   47 1     
   37   17   18 1     
   38   18   48 1     
   39   18   49 1     
   40   18   50 1     
   41   19   27 ar    
   42   19   20 1     
   43   20   21 2     
   44   21   22 1     
   45   21   23 1     
   46   22   51 1     
   47   22   52 1     
   48   23   24 1     
   49   23   25 am    
   50   25   26 2     
   51   25   27 1     
   52   27   28 ar    
   53   28   29 ar    
   54   28   53 1     
   55   29   30 1     
   56   30   31 1     
@<TRIPOS>SUBSTRUCTURE
      1 ****           1
@<TRIPOS>SET
DONOR_HYDROGENS      STATIC     ATOMS    <user>   **** ""
6 35 46 51 52 24 31
ATOM$RED        STATIC     ATOMS    COLORGROUP SYSTEM
6 35 46 51 52 24 31
