#       Name:                1VK
#       Creating user name   gbret
#       Creation time:       Thu Sep  8 20:42:15 2016


#       File generated by GOLD software.
#

@<TRIPOS>MOLECULE
1VK
    21    22     1
SMALL
NO_CHARGES


@<TRIPOS>ATOM
      1 N1          -2.7652   2.8967   0.0274 N.pl3          1 <1>                0.0000
      2 C2          -2.7464   1.5089   0.0198 C.2            1 <1>                0.0000
      3 N3          -3.7595   0.6736   0.0192 N.2            1 <1>                0.0000
      4 O4          -3.3458  -0.4617   0.0114 O.3            1 <1>                0.0000
      5 N5          -2.1441  -0.5904   0.0061 N.2            1 <1>                0.0000
      6 C6          -1.5785   0.5981   0.0038 C.2            1 <1>                0.0000
      7 C7          -0.1379   0.9386  -0.0026 C.2            1 <1>                0.0000
      8 O8           0.2113   2.1025  -0.0043 O.2            1 <1>                0.0000
      9 C9           0.8750  -0.1363  -0.0067 C.ar           1 <1>                0.0000
     10 C10          0.4771  -1.4756  -0.0105 C.ar           1 <1>                0.0000
     11 C11          1.4284  -2.4740  -0.0149 C.ar           1 <1>                0.0000
     12 C12          2.7744  -2.1520  -0.0150 C.ar           1 <1>                0.0000
     13 C13          3.1758  -0.8275  -0.0108 C.ar           1 <1>                0.0000
     14 C14          2.2355   0.1814  -0.0127 C.ar           1 <1>                0.0000
     15 H15         -1.9319   3.3931   0.0221 H              1 <1>                0.0000
     16 H16         -3.6118   3.3702   0.0340 H              1 <1>                0.0000
     17 H17         -0.5729  -1.7283  -0.0097 H              1 <1>                0.0000
     18 H18          1.1224  -3.5098  -0.0178 H              1 <1>                0.0000
     19 H19          3.5151  -2.9380  -0.0180 H              1 <1>                0.0000
     20 H20          4.2279  -0.5834  -0.0105 H              1 <1>                0.0000
     21 H21          2.5501   1.2146  -0.0094 H              1 <1>                0.0000
@<TRIPOS>BOND
    1    1    2 1     
    2    1   15 1     
    3    1   16 1     
    4    2    6 1     
    5    2    3 2     
    6    3    4 1     
    7    4    5 1     
    8    5    6 2     
    9    6    7 1     
   10    7    8 2     
   11    7    9 1     
   12    9   14 ar    
   13    9   10 ar    
   14   10   11 ar    
   15   10   17 1     
   16   11   12 ar    
   17   11   18 1     
   18   12   13 ar    
   19   12   19 1     
   20   13   14 ar    
   21   13   20 1     
   22   14   21 1     
@<TRIPOS>SUBSTRUCTURE
      1 ****           1
@<TRIPOS>SET
DONOR_HYDROGENS      STATIC     ATOMS    <user>   **** ""
2 15 16
ATOM$RED        STATIC     ATOMS    COLORGROUP SYSTEM
2 15 16
