#       Name:                1VY
#       Creating user name   gbret
#       Creation time:       Thu Sep  8 20:43:11 2016


#       File generated by GOLD software.
#

@<TRIPOS>MOLECULE
1VY
    39    40     1
SMALL
NO_CHARGES


@<TRIPOS>ATOM
      1 C1          -1.1079   4.2216  -1.9924 C.3            1 <1>                0.0000
      2 C2          -1.0874   2.7147  -2.0007 C.2            1 <1>                0.0000
      3 N3          -1.0841   2.0731  -3.1499 N.2            1 <1>                0.0000
      4 C4          -1.0658   0.7495  -3.1815 C.2            1 <1>                0.0000
      5 C5          -1.0496   0.0036  -1.9767 C.2            1 <1>                0.0000
      6 N6          -1.0323  -1.3223  -2.0348 N.2            1 <1>                0.0000
      7 C7          -1.0299  -1.9695  -3.1944 C.2            1 <1>                0.0000
      8 O8          -1.0136  -3.1886  -3.1787 O.2            1 <1>                0.0000
      9 N9          -1.0448  -1.3456  -4.3835 N.am           1 <1>                0.0000
     10 H10         -1.0428  -1.8682  -5.2007 H              1 <1>                0.0000
     11 C11         -1.0622   0.0056  -4.4515 C.2            1 <1>                0.0000
     12 O12         -1.0756   0.5839  -5.5222 O.2            1 <1>                0.0000
     13 N13         -1.0525   0.6692  -0.7827 N.pl3          1 <1>                0.0000
     14 C14         -1.0356  -0.0684   0.4829 C.3            1 <1>                0.0000
     15 C15          0.4127  -0.3051   0.9159 C.3            1 <1>                0.0000
     16 O16          1.0357   0.9490   1.2008 O.3            1 <1>                0.0000
     17 C17          0.4334  -1.1814   2.1699 C.3            1 <1>                0.0000
     18 O18         -0.1896  -2.4355   1.8849 O.3            1 <1>                0.0000
     19 C19          1.8816  -1.4181   2.6028 C.3            1 <1>                0.0000
     20 O20          2.5046  -0.1640   2.8878 O.3            1 <1>                0.0000
     21 C21          1.9023  -2.2944   3.8568 C.3            1 <1>                0.0000
     22 O22          3.2542  -2.6118   4.1939 O.3            1 <1>                0.0000
     23 C23         -1.0665   2.0225  -0.7919 C.2            1 <1>                0.0000
     24 O24         -1.0693   2.7023   0.3720 O.3            1 <1>                0.0000
     25 H25         -0.0853   4.5989  -2.0001 H              1 <1>                0.0000
     26 H26         -1.6350   4.5827  -2.8755 H              1 <1>                0.0000
     27 H27         -1.6181   4.5731  -1.0956 H              1 <1>                0.0000
     28 H28         -1.5535   0.5103   1.2477 H              1 <1>                0.0000
     29 H29         -1.5368  -1.0274   0.3513 H              1 <1>                0.0000
     30 H30          0.9545  -0.8060   0.1136 H              1 <1>                0.0000
     31 H31          0.6052   1.4506   1.9066 H              1 <1>                0.0000
     32 H32         -0.1085  -0.6805   2.9721 H              1 <1>                0.0000
     33 H33          0.2409  -2.9372   1.1791 H              1 <1>                0.0000
     34 H34          2.4235  -1.9190   1.8006 H              1 <1>                0.0000
     35 H35          2.0741   0.3376   3.5936 H              1 <1>                0.0000
     36 H36          1.4384  -1.7566   4.6836 H              1 <1>                0.0000
     37 H37          1.3498  -3.2145   3.6663 H              1 <1>                0.0000
     38 H38          3.3435  -3.1665   4.9810 H              1 <1>                0.0000
     39 H39         -0.2087   2.9326   0.7479 H              1 <1>                0.0000
@<TRIPOS>BOND
    1    1    2 1     
    2    1   25 1     
    3    1   26 1     
    4    1   27 1     
    5    2   23 2     
    6    2    3 1     
    7    3    4 2     
    8    4   11 1     
    9    4    5 1     
   10    5    6 2     
   11    5   13 1     
   12    6    7 1     
   13    7    8 2     
   14    7    9 am    
   15    9   10 1     
   16    9   11 am    
   17   11   12 2     
   18   13   14 1     
   19   13   23 1     
   20   14   15 1     
   21   14   28 1     
   22   14   29 1     
   23   15   16 1     
   24   15   17 1     
   25   15   30 1     
   26   16   31 1     
   27   17   18 1     
   28   17   19 1     
   29   17   32 1     
   30   18   33 1     
   31   19   20 1     
   32   19   21 1     
   33   19   34 1     
   34   20   35 1     
   35   21   22 1     
   36   21   36 1     
   37   21   37 1     
   38   22   38 1     
   39   23   24 1     
   40   24   39 1     
@<TRIPOS>SUBSTRUCTURE
      1 ****           1
@<TRIPOS>SET
DONOR_HYDROGENS      STATIC     ATOMS    <user>   **** ""
6 10 31 33 35 38 39
ATOM$RED        STATIC     ATOMS    COLORGROUP SYSTEM
6 10 31 33 35 38 39
