#       Name:                1Y5
#       Creating user name   gbret
#       Creation time:       Thu Sep  8 20:48:06 2016


#       File generated by GOLD software.
#

@<TRIPOS>MOLECULE
1Y5
    25    26     1
SMALL
NO_CHARGES


@<TRIPOS>ATOM
      1 N1           0.4986   0.2077  -2.4358 N.4            1 <1>                0.0000
      2 H2           0.5123  -0.8012  -2.4414 H              1 <1>                0.0000
      3 H3           1.4452   0.5570  -2.4430 H              1 <1>                0.0000
      4 H4           0.0106   0.5420  -3.2533 H              1 <1>                0.0000
      5 C5          -0.1890   0.6815  -1.2272 C.3            1 <1>                0.0000
      6 C6          -1.6291   0.1729  -1.2351 C.3            1 <1>                0.0000
      7 C7          -2.2615   0.4896   0.1253 C.3            1 <1>                0.0000
      8 C8          -1.6110  -0.4046   1.1788 C.3            1 <1>                0.0000
      9 C9          -0.1097  -0.3134   1.0967 C.ar           1 <1>                0.0000
     10 C10          0.6255  -0.7507   2.1912 C.ar           1 <1>                0.0000
     11 C11          2.0038  -0.6988   2.1757 C.ar           1 <1>                0.0000
     12 C12          2.6599  -0.2077   1.0621 C.ar           1 <1>                0.0000
     13 C13          1.9315   0.2299  -0.0244 C.ar           1 <1>                0.0000
     14 C14          0.5434   0.1798  -0.0103 C.ar           1 <1>                0.0000
     15 H15         -0.1934   1.7714  -1.2202 H              1 <1>                0.0000
     16 H16         -2.1901   0.6713  -2.0256 H              1 <1>                0.0000
     17 H17         -1.6372  -0.9042  -1.4018 H              1 <1>                0.0000
     18 H18         -2.0894   1.5365   0.3754 H              1 <1>                0.0000
     19 H19         -3.3328   0.2922   0.0870 H              1 <1>                0.0000
     20 H20         -1.9367  -0.0882   2.1697 H              1 <1>                0.0000
     21 H21         -1.9179  -1.4373   1.0129 H              1 <1>                0.0000
     22 H22          0.1138  -1.1341   3.0615 H              1 <1>                0.0000
     23 H23          2.5685  -1.0403   3.0306 H              1 <1>                0.0000
     24 H24          3.7389  -0.1664   1.0433 H              1 <1>                0.0000
     25 H25          2.4447   0.6149  -0.8932 H              1 <1>                0.0000
@<TRIPOS>BOND
    1    1    2 1     
    2    1    3 1     
    3    1    4 1     
    4    1    5 1     
    5    5   14 1     
    6    5    6 1     
    7    5   15 1     
    8    6    7 1     
    9    6   16 1     
   10    6   17 1     
   11    7    8 1     
   12    7   18 1     
   13    7   19 1     
   14    8    9 1     
   15    8   20 1     
   16    8   21 1     
   17    9   14 ar    
   18    9   10 ar    
   19   10   11 ar    
   20   10   22 1     
   21   11   12 ar    
   22   11   23 1     
   23   12   13 ar    
   24   12   24 1     
   25   13   14 ar    
   26   13   25 1     
@<TRIPOS>SUBSTRUCTURE
      1 ****           1
@<TRIPOS>SET
DONOR_HYDROGENS      STATIC     ATOMS    <user>   **** ""
3 2 3 4
ATOM$RED        STATIC     ATOMS    COLORGROUP SYSTEM
3 2 3 4
