#       Name:                1ZG
#       Creating user name   gbret
#       Creation time:       Thu Sep  8 20:50:42 2016


#       File generated by GOLD software.
#

@<TRIPOS>MOLECULE
1ZG
    63    64     1
SMALL
NO_CHARGES


@<TRIPOS>ATOM
      1 C1           0.0743   4.7341  -1.3624 C.3            1 <1>                0.0000
      2 C2           0.7525   3.3749  -1.1794 C.3            1 <1>                0.0000
      3 C3           2.0184   3.5459  -0.3372 C.3            1 <1>                0.0000
      4 C4          -0.2069   2.4176  -0.4694 C.3            1 <1>                0.0000
      5 N5          -1.3766   2.1795  -1.3188 N.am           1 <1>                0.0000
      6 C6          -2.4160   3.0370  -1.2899 C.2            1 <1>                0.0000
      7 O7          -2.3831   4.0056  -0.5609 O.2            1 <1>                0.0000
      8 C8          -3.6193   2.7921  -2.1636 C.3            1 <1>                0.0000
      9 C9          -4.6461   3.9042  -1.9409 C.3            1 <1>                0.0000
     10 C10         -5.8494   3.6593  -2.8146 C.2            1 <1>                0.0000
     11 O11         -5.8825   2.6855  -3.5475 O.co2          1 <1>                0.0000
     12 O12         -6.7897   4.4349  -2.7885 O.co2          1 <1>                0.0000
     13 C13          0.4940   1.1106  -0.2019 C.2            1 <1>                0.0000
     14 O14          0.5396   0.2593  -1.0645 O.2            1 <1>                0.0000
     15 N15          1.0702   0.8878   0.9959 N.am           1 <1>                0.0000
     16 C16          1.1693   1.8636   2.0965 C.3            1 <1>                0.0000
     17 C17          1.3120   1.0038   3.3772 C.3            1 <1>                0.0000
     18 C18          2.1961  -0.1660   2.8700 C.3            1 <1>                0.0000
     19 C19          1.6985  -0.3707   1.4237 C.3            1 <1>                0.0000
     20 C20          0.6939  -1.4932   1.3813 C.2            1 <1>                0.0000
     21 O21         -0.4427  -1.2764   1.0181 O.2            1 <1>                0.0000
     22 N22          1.0586  -2.7381   1.7471 N.am           1 <1>                0.0000
     23 C23          0.0820  -3.8294   1.7059 C.3            1 <1>                0.0000
     24 C24          0.7220  -5.0626   1.0652 C.3            1 <1>                0.0000
     25 C25          1.1503  -4.7327  -0.3415 C.ar           1 <1>                0.0000
     26 C26          0.2397  -4.8144  -1.3783 C.ar           1 <1>                0.0000
     27 C27          0.6325  -4.5119  -2.6687 C.ar           1 <1>                0.0000
     28 C28          1.9358  -4.1271  -2.9221 C.ar           1 <1>                0.0000
     29 C29          2.8462  -4.0445  -1.8852 C.ar           1 <1>                0.0000
     30 C30          2.4523  -4.3430  -0.5942 C.ar           1 <1>                0.0000
     31 P31         -0.4502  -4.2329   3.4022 P.3            1 <1>                0.0000
     32 O32         -1.0913  -2.9657   4.0637 O.co2          1 <1>                0.0000
     33 O33         -1.5063  -5.3892   3.3570 O.co2          1 <1>                0.0000
     34 O34          0.7896  -4.6906   4.2435 O.co2          1 <1>                0.0000
     35 H35          0.7578   5.4160  -1.8682 H              1 <1>                0.0000
     36 H36         -0.8276   4.6122  -1.9624 H              1 <1>                0.0000
     37 H37         -0.1906   5.1422  -0.3870 H              1 <1>                0.0000
     38 H38          1.0174   2.9667  -2.1547 H              1 <1>                0.0000
     39 H39          1.7617   4.0122   0.6140 H              1 <1>                0.0000
     40 H40          2.4674   2.5698  -0.1539 H              1 <1>                0.0000
     41 H41          2.7278   4.1776  -0.8717 H              1 <1>                0.0000
     42 H42         -0.5271   2.8581   0.4748 H              1 <1>                0.0000
     43 H43         -1.4030   1.4048  -1.9019 H              1 <1>                0.0000
     44 H44         -3.3132   2.7844  -3.2097 H              1 <1>                0.0000
     45 H45         -4.0641   1.8303  -1.9082 H              1 <1>                0.0000
     46 H46         -4.9522   3.9119  -0.8948 H              1 <1>                0.0000
     47 H47         -4.2013   4.8659  -2.1964 H              1 <1>                0.0000
     48 H48          2.0470   2.4964   1.9647 H              1 <1>                0.0000
     49 H49          0.2662   2.4719   2.1467 H              1 <1>                0.0000
     50 H50          1.8161   1.5604   4.1673 H              1 <1>                0.0000
     51 H51          0.3410   0.6418   3.7149 H              1 <1>                0.0000
     52 H52          3.2497   0.1129   2.8834 H              1 <1>                0.0000
     53 H53          2.0261  -1.0637   3.4645 H              1 <1>                0.0000
     54 H54          2.5408  -0.5994   0.7708 H              1 <1>                0.0000
     55 H55          1.9677  -2.9115   2.0377 H              1 <1>                0.0000
     56 H56         -0.7823  -3.5214   1.1175 H              1 <1>                0.0000
     57 H57          1.5919  -5.3649   1.6484 H              1 <1>                0.0000
     58 H58         -0.0016  -5.8774   1.0431 H              1 <1>                0.0000
     59 H59         -0.7786  -5.1150  -1.1803 H              1 <1>                0.0000
     60 H60         -0.0787  -4.5764  -3.4788 H              1 <1>                0.0000
     61 H61          2.2429  -3.8914  -3.9304 H              1 <1>                0.0000
     62 H62          3.8645  -3.7443  -2.0832 H              1 <1>                0.0000
     63 H63          3.1635  -4.2784   0.2160 H              1 <1>                0.0000
@<TRIPOS>BOND
    1    1    2 1     
    2    1   35 1     
    3    1   36 1     
    4    1   37 1     
    5    2    3 1     
    6    2    4 1     
    7    2   38 1     
    8    3   39 1     
    9    3   40 1     
   10    3   41 1     
   11    4    5 1     
   12    4   13 1     
   13    4   42 1     
   14    5    6 am    
   15    5   43 1     
   16    6    7 2     
   17    6    8 1     
   18    8    9 1     
   19    8   44 1     
   20    8   45 1     
   21    9   10 1     
   22    9   46 1     
   23    9   47 1     
   24   10   11 ar    
   25   10   12 ar    
   26   13   14 2     
   27   13   15 am    
   28   15   19 1     
   29   15   16 1     
   30   16   17 1     
   31   16   48 1     
   32   16   49 1     
   33   17   18 1     
   34   17   50 1     
   35   17   51 1     
   36   18   19 1     
   37   18   52 1     
   38   18   53 1     
   39   19   20 1     
   40   19   54 1     
   41   20   21 2     
   42   20   22 am    
   43   22   23 1     
   44   22   55 1     
   45   23   24 1     
   46   23   31 1     
   47   23   56 1     
   48   24   25 1     
   49   24   57 1     
   50   24   58 1     
   51   25   30 ar    
   52   25   26 ar    
   53   26   27 ar    
   54   26   59 1     
   55   27   28 ar    
   56   27   60 1     
   57   28   29 ar    
   58   28   61 1     
   59   29   30 ar    
   60   29   62 1     
   61   30   63 1     
   62   31   32 ar    
   63   31   33 ar    
   64   31   34 ar    
@<TRIPOS>SUBSTRUCTURE
      1 ****           1
@<TRIPOS>SET
DONOR_HYDROGENS      STATIC     ATOMS    <user>   **** ""
2 43 55
ATOM$RED        STATIC     ATOMS    COLORGROUP SYSTEM
2 43 55
