#       Name:                21F
#       Creating user name   gbret
#       Creation time:       Thu Sep  8 20:54:32 2016


#       File generated by GOLD software.
#

@<TRIPOS>MOLECULE
21F
    49    50     1
SMALL
NO_CHARGES


@<TRIPOS>ATOM
      1 C1           0.0948   7.4235  -2.0794 C.3            1 <1>                0.0000
      2 C2           0.1156   5.8936  -2.0878 C.3            1 <1>                0.0000
      3 S3          -1.5862   5.2657  -2.0749 S.o2           1 <1>                0.0000
      4 O4          -2.2119   5.5466  -0.8304 O.2            1 <1>                0.0000
      5 O5          -2.2356   5.5599  -3.3042 O.2            1 <1>                0.0000
      6 N6          -1.4189   3.6183  -2.0854 N.pl3          1 <1>                0.0000
      7 C7          -0.8005   2.9375  -0.9450 C.3            1 <1>                0.0000
      8 C8          -1.8915   2.4564   0.0144 C.3            1 <1>                0.0000
      9 C9          -1.2398   1.7758   1.2223 C.3            1 <1>                0.0000
     10 N10         -0.3473   0.7124   0.7414 N.am           1 <1>                0.0000
     11 C11          0.6806   1.0488  -0.2531 C.3            1 <1>                0.0000
     12 C12          0.0074   1.7376  -1.4444 C.3            1 <1>                0.0000
     13 C13         -0.4690  -0.5476   1.2039 C.2            1 <1>                0.0000
     14 O14         -1.3213  -0.8125   2.0251 O.2            1 <1>                0.0000
     15 C15          0.4541  -1.6274   0.7008 C.3            1 <1>                0.0000
     16 N16          0.1208  -2.8970   1.3514 N.pl3          1 <1>                0.0000
     17 C17          0.8470  -4.0538   1.0426 C.ar           1 <1>                0.0000
     18 C18          1.8858  -3.9981   0.1251 C.ar           1 <1>                0.0000
     19 C19          2.6016  -5.1415  -0.1786 C.ar           1 <1>                0.0000
     20 I20          4.1702  -5.0556  -1.5647 I              1 <1>                0.0000
     21 C21          2.2842  -6.3426   0.4315 C.ar           1 <1>                0.0000
     22 Cl22         3.1871  -7.7745   0.0470 Cl             1 <1>                0.0000
     23 C23          1.2490  -6.4045   1.3476 C.ar           1 <1>                0.0000
     24 C24          0.5314  -5.2618   1.6603 C.ar           1 <1>                0.0000
     25 O25         -0.4861  -5.3212   2.5610 O.3            1 <1>                0.0000
     26 C26         -0.7605  -6.5955   3.1466 C.3            1 <1>                0.0000
     27 H27          1.1174   7.8008  -2.0871 H              1 <1>                0.0000
     28 H28         -0.4324   7.7845  -2.9624 H              1 <1>                0.0000
     29 H29         -0.4154   7.7750  -1.1826 H              1 <1>                0.0000
     30 H30          0.6258   5.5421  -2.9846 H              1 <1>                0.0000
     31 H31          0.6428   5.5326  -1.2047 H              1 <1>                0.0000
     32 H32         -1.7304   3.1039  -2.8465 H              1 <1>                0.0000
     33 H33         -0.1387   3.6296  -0.4243 H              1 <1>                0.0000
     34 H34         -2.4813   3.3088   0.3515 H              1 <1>                0.0000
     35 H35         -2.5391   1.7453  -0.4983 H              1 <1>                0.0000
     36 H36         -0.6639   2.5084   1.7877 H              1 <1>                0.0000
     37 H37         -2.0120   1.3445   1.8593 H              1 <1>                0.0000
     38 H38          1.4132   1.7221   0.1920 H              1 <1>                0.0000
     39 H39          1.1755   0.1378  -0.5896 H              1 <1>                0.0000
     40 H40         -0.6581   1.0332  -1.9434 H              1 <1>                0.0000
     41 H41          0.7691   2.0783  -2.1457 H              1 <1>                0.0000
     42 H42          0.3384  -1.7306  -0.3781 H              1 <1>                0.0000
     43 H43          1.4854  -1.3605   0.9318 H              1 <1>                0.0000
     44 H44         -0.6028  -2.9363   1.9962 H              1 <1>                0.0000
     45 H45          2.1352  -3.0620  -0.3523 H              1 <1>                0.0000
     46 H46          1.0034  -7.3430   1.8222 H              1 <1>                0.0000
     47 H47         -1.5925  -6.5030   3.8447 H              1 <1>                0.0000
     48 H48         -1.0212  -7.3069   2.3630 H              1 <1>                0.0000
     49 H49          0.1228  -6.9486   3.6788 H              1 <1>                0.0000
@<TRIPOS>BOND
    1    1    2 1     
    2    1   27 1     
    3    1   28 1     
    4    1   29 1     
    5    2    3 1     
    6    2   30 1     
    7    2   31 1     
    8    3    4 2     
    9    3    5 2     
   10    3    6 1     
   11    6    7 1     
   12    6   32 1     
   13    7   12 1     
   14    7    8 1     
   15    7   33 1     
   16    8    9 1     
   17    8   34 1     
   18    8   35 1     
   19    9   10 1     
   20    9   36 1     
   21    9   37 1     
   22   10   11 1     
   23   10   13 am    
   24   11   12 1     
   25   11   38 1     
   26   11   39 1     
   27   12   40 1     
   28   12   41 1     
   29   13   14 2     
   30   13   15 1     
   31   15   16 1     
   32   15   42 1     
   33   15   43 1     
   34   16   17 1     
   35   16   44 1     
   36   17   24 ar    
   37   17   18 ar    
   38   18   19 ar    
   39   18   45 1     
   40   19   20 1     
   41   19   21 ar    
   42   21   22 1     
   43   21   23 ar    
   44   23   24 ar    
   45   23   46 1     
   46   24   25 1     
   47   25   26 1     
   48   26   47 1     
   49   26   48 1     
   50   26   49 1     
@<TRIPOS>SUBSTRUCTURE
      1 ****           1
@<TRIPOS>SET
DONOR_HYDROGENS      STATIC     ATOMS    <user>   **** ""
2 32 44
ATOM$RED        STATIC     ATOMS    COLORGROUP SYSTEM
2 32 44
