#       Name:                21T
#       Creating user name   gbret
#       Creation time:       Thu Sep  8 20:55:22 2016


#       File generated by GOLD software.
#

@<TRIPOS>MOLECULE
21T
    61    65     1
SMALL
NO_CHARGES


@<TRIPOS>ATOM
      1 C1           0.5961   2.8451   1.9139 C.3            1 <1>                0.0000
      2 C2           0.9233   1.3638   2.1129 C.3            1 <1>                0.0000
      3 C3           1.9088   1.2106   3.2732 C.3            1 <1>                0.0000
      4 C4          -0.3614   0.5959   2.4301 C.3            1 <1>                0.0000
      5 C5           1.5403   0.8121   0.8536 C.2            1 <1>                0.0000
      6 C6           0.8605   0.3251  -0.2442 C.2            1 <1>                0.0000
      7 C7           1.8300  -0.0858  -1.1876 C.2            1 <1>                0.0000
      8 N8           3.0102   0.1432  -0.6812 N.2            1 <1>                0.0000
      9 N9           2.8565   0.7087   0.5896 N.pl3          1 <1>                0.0000
     10 C10          3.8937   1.0926   1.4438 C.ar           1 <1>                0.0000
     11 C11          3.9564   2.3999   1.9149 C.ar           1 <1>                0.0000
     12 C12          4.9767   2.7823   2.7562 C.ar           1 <1>                0.0000
     13 C13          5.9510   1.8540   3.1376 C.ar           1 <1>                0.0000
     14 C14          5.8840   0.5404   2.6621 C.ar           1 <1>                0.0000
     15 C15          4.8575   0.1648   1.8253 C.ar           1 <1>                0.0000
     16 C16          7.0450   2.2590   4.0374 C.2            1 <1>                0.0000
     17 O17          7.1022   3.4084   4.4520 O.co2          1 <1>                0.0000
     18 O18          7.8962   1.4458   4.3699 O.co2          1 <1>                0.0000
     19 C19         -0.6031   0.2477  -0.4034 C.2            1 <1>                0.0000
     20 O20         -1.3057   1.1629  -0.0193 O.2            1 <1>                0.0000
     21 N21         -1.1624  -0.8373  -0.9747 N.am           1 <1>                0.0000
     22 C22         -2.6168  -0.9142  -1.1329 C.3            1 <1>                0.0000
     23 C23         -3.0276  -0.2040  -2.4244 C.3            1 <1>                0.0000
     24 C24         -2.3484  -0.8807  -3.6167 C.3            1 <1>                0.0000
     25 C25         -2.7773  -2.3479  -3.6829 C.3            1 <1>                0.0000
     26 C26         -4.2963  -2.4282  -3.8481 C.3            1 <1>                0.0000
     27 C27         -4.9755  -1.7515  -2.6557 C.3            1 <1>                0.0000
     28 C28         -4.5465  -0.2843  -2.5896 C.3            1 <1>                0.0000
     29 C29         -4.5647  -2.4617  -1.3643 C.3            1 <1>                0.0000
     30 C30         -3.0458  -2.3814  -1.1991 C.3            1 <1>                0.0000
     31 C31         -2.3666  -3.0580  -2.3914 C.3            1 <1>                0.0000
     32 H32          1.4957   3.3776   1.6052 H              1 <1>                0.0000
     33 H33         -0.1691   2.9480   1.1444 H              1 <1>                0.0000
     34 H34          0.2286   3.2650   2.8502 H              1 <1>                0.0000
     35 H35          1.3572   1.0511   4.1997 H              1 <1>                0.0000
     36 H36          2.5600   0.3567   3.0864 H              1 <1>                0.0000
     37 H37          2.5112   2.1148   3.3600 H              1 <1>                0.0000
     38 H38         -1.2193   1.1494   2.0483 H              1 <1>                0.0000
     39 H39         -0.3236  -0.3861   1.9586 H              1 <1>                0.0000
     40 H40         -0.4567   0.4772   3.5095 H              1 <1>                0.0000
     41 H41          1.6287  -0.5149  -2.1581 H              1 <1>                0.0000
     42 H42          3.2037   3.1161   1.6199 H              1 <1>                0.0000
     43 H43          5.0251   3.7977   3.1209 H              1 <1>                0.0000
     44 H44          6.6346  -0.1793   2.9540 H              1 <1>                0.0000
     45 H45          4.8050  -0.8493   1.4576 H              1 <1>                0.0000
     46 H46         -0.6019  -1.5674  -1.2811 H              1 <1>                0.0000
     47 H47         -3.1007  -0.4321  -0.2835 H              1 <1>                0.0000
     48 H48         -2.7220   0.8412  -2.3772 H              1 <1>                0.0000
     49 H49         -2.6410  -0.3748  -4.5368 H              1 <1>                0.0000
     50 H50         -1.2663  -0.8235  -3.4990 H              1 <1>                0.0000
     51 H51         -2.2935  -2.8299  -4.5323 H              1 <1>                0.0000
     52 H52         -4.5889  -1.9222  -4.7681 H              1 <1>                0.0000
     53 H53         -4.6019  -3.4734  -3.8952 H              1 <1>                0.0000
     54 H54         -6.0576  -1.8087  -2.7735 H              1 <1>                0.0000
     55 H55         -5.0304   0.1977  -1.7401 H              1 <1>                0.0000
     56 H56         -4.8391   0.2216  -3.5096 H              1 <1>                0.0000
     57 H57         -5.0486  -1.9796  -0.5148 H              1 <1>                0.0000
     58 H58         -4.8703  -3.5069  -1.4114 H              1 <1>                0.0000
     59 H59         -2.7531  -2.8873  -0.2790 H              1 <1>                0.0000
     60 H60         -2.6722  -4.1033  -2.4385 H              1 <1>                0.0000
     61 H61         -1.2845  -3.0008  -2.2737 H              1 <1>                0.0000
@<TRIPOS>BOND
    1    1    2 1     
    2    1   32 1     
    3    1   33 1     
    4    1   34 1     
    5    2    3 1     
    6    2    4 1     
    7    2    5 1     
    8    3   35 1     
    9    3   36 1     
   10    3   37 1     
   11    4   38 1     
   12    4   39 1     
   13    4   40 1     
   14    5    9 1     
   15    5    6 2     
   16    6    7 1     
   17    6   19 1     
   18    7    8 2     
   19    7   41 1     
   20    8    9 1     
   21    9   10 1     
   22   10   15 ar    
   23   10   11 ar    
   24   11   12 ar    
   25   11   42 1     
   26   12   13 ar    
   27   12   43 1     
   28   13   14 ar    
   29   13   16 1     
   30   14   15 ar    
   31   14   44 1     
   32   15   45 1     
   33   16   17 ar    
   34   16   18 ar    
   35   19   20 2     
   36   19   21 am    
   37   21   22 1     
   38   21   46 1     
   39   22   30 1     
   40   22   23 1     
   41   22   47 1     
   42   23   28 1     
   43   23   24 1     
   44   23   48 1     
   45   24   25 1     
   46   24   49 1     
   47   24   50 1     
   48   25   31 1     
   49   25   26 1     
   50   25   51 1     
   51   26   27 1     
   52   26   52 1     
   53   26   53 1     
   54   27   28 1     
   55   27   29 1     
   56   27   54 1     
   57   28   55 1     
   58   28   56 1     
   59   29   30 1     
   60   29   57 1     
   61   29   58 1     
   62   30   31 1     
   63   30   59 1     
   64   31   60 1     
   65   31   61 1     
@<TRIPOS>SUBSTRUCTURE
      1 ****           1
@<TRIPOS>SET
DONOR_HYDROGENS      STATIC     ATOMS    <user>   **** ""
1 46
ATOM$RED        STATIC     ATOMS    COLORGROUP SYSTEM
1 46
