#       Name:                237
#       Creating user name   gbret
#       Creation time:       Thu Sep  8 20:58:29 2016


#       File generated by GOLD software.
#

@<TRIPOS>MOLECULE
237
    62    65     1
SMALL
NO_CHARGES


@<TRIPOS>ATOM
      1 C1          -3.5647   2.1401  -5.0707 C.3            1 <1>                0.0000
      2 O2          -3.0529   0.8099  -4.9678 O.3            1 <1>                0.0000
      3 C3          -2.1123   0.6295  -3.9072 C.3            1 <1>                0.0000
      4 C4          -2.0485  -0.8572  -3.4673 C.3            1 <1>                0.0000
      5 C5          -0.6218  -0.9868  -2.8936 C.3            1 <1>                0.0000
      6 N6           0.1840   0.0950  -3.4785 N.am           1 <1>                0.0000
      7 C7          -0.6643   0.8697  -4.4024 C.3            1 <1>                0.0000
      8 C8           1.4827   0.3386  -3.2131 C.2            1 <1>                0.0000
      9 O9           2.0861  -0.3683  -2.4293 O.2            1 <1>                0.0000
     10 N10          2.1126   1.3659  -3.8167 N.am           1 <1>                0.0000
     11 C11          3.4440   1.6564  -3.4959 C.ar           1 <1>                0.0000
     12 C12          3.8759   2.9752  -3.4478 C.ar           1 <1>                0.0000
     13 C13          5.1899   3.2591  -3.1311 C.ar           1 <1>                0.0000
     14 C14          6.0758   2.2306  -2.8619 C.ar           1 <1>                0.0000
     15 Cl15         7.7266   2.5909  -2.4636 Cl             1 <1>                0.0000
     16 C16          5.6478   0.9155  -2.9092 C.ar           1 <1>                0.0000
     17 C17          4.3334   0.6266  -3.2198 C.ar           1 <1>                0.0000
     18 C18         -0.6577  -0.8456  -1.3936 C.2            1 <1>                0.0000
     19 O19         -0.3609   0.2107  -0.8767 O.2            1 <1>                0.0000
     20 N20         -1.0197  -1.8930  -0.6266 N.am           1 <1>                0.0000
     21 C21         -1.2104  -1.7202   0.7489 C.ar           1 <1>                0.0000
     22 C22         -1.4436  -0.4508   1.2628 C.ar           1 <1>                0.0000
     23 C23         -1.6314  -0.2776   2.6179 C.ar           1 <1>                0.0000
     24 C24         -1.5878  -1.3772   3.4735 C.ar           1 <1>                0.0000
     25 C25         -1.3543  -2.6509   2.9575 C.ar           1 <1>                0.0000
     26 C26         -1.1719  -2.8209   1.5995 C.ar           1 <1>                0.0000
     27 F27         -0.9459  -4.0547   1.0977 F              1 <1>                0.0000
     28 C28         -1.7892  -1.1922   4.9316 C.ar           1 <1>                0.0000
     29 C29         -2.8727  -1.7933   5.5699 C.ar           1 <1>                0.0000
     30 C30         -3.0552  -1.6177   6.9264 C.ar           1 <1>                0.0000
     31 C31         -2.1652  -0.8467   7.6526 C.ar           1 <1>                0.0000
     32 C32         -1.0883  -0.2478   7.0244 C.ar           1 <1>                0.0000
     33 C33         -0.8928  -0.4213   5.6691 C.ar           1 <1>                0.0000
     34 S34          0.4797   0.3423   4.8704 S.o2           1 <1>                0.0000
     35 C35          1.4532  -1.0433   4.2199 C.3            1 <1>                0.0000
     36 O36         -0.1021   1.0852   3.8079 O.2            1 <1>                0.0000
     37 O37          1.1795   0.9931   5.9220 O.2            1 <1>                0.0000
     38 H38         -2.7424   2.8330  -5.2488 H              1 <1>                0.0000
     39 H39         -4.2714   2.1944  -5.8988 H              1 <1>                0.0000
     40 H40         -4.0707   2.4074  -4.1431 H              1 <1>                0.0000
     41 H41         -2.3491   1.2774  -3.0633 H              1 <1>                0.0000
     42 H42         -2.7934  -1.0643  -2.6990 H              1 <1>                0.0000
     43 H43         -2.1816  -1.5186  -4.3233 H              1 <1>                0.0000
     44 H44         -0.1988  -1.9536  -3.1669 H              1 <1>                0.0000
     45 H45         -0.5466   0.5038  -5.4224 H              1 <1>                0.0000
     46 H46         -0.4155   1.9295  -4.3475 H              1 <1>                0.0000
     47 H47          1.6434   1.9041  -4.4734 H              1 <1>                0.0000
     48 H48          3.1851   3.7782  -3.6581 H              1 <1>                0.0000
     49 H49          5.5265   4.2847  -3.0939 H              1 <1>                0.0000
     50 H50          6.3412   0.1146  -2.6991 H              1 <1>                0.0000
     51 H51          3.9999  -0.4001  -3.2566 H              1 <1>                0.0000
     52 H52         -1.1480  -2.7668  -1.0280 H              1 <1>                0.0000
     53 H53         -1.4775   0.4014   0.6003 H              1 <1>                0.0000
     54 H54         -1.8119   0.7099   3.0162 H              1 <1>                0.0000
     55 H55         -1.3201  -3.5042   3.6186 H              1 <1>                0.0000
     56 H56         -3.5682  -2.3952   5.0039 H              1 <1>                0.0000
     57 H57         -3.8945  -2.0827   7.4220 H              1 <1>                0.0000
     58 H58         -2.3120  -0.7116   8.7140 H              1 <1>                0.0000
     59 H59         -0.3969   0.3534   7.5962 H              1 <1>                0.0000
     60 H60          0.8449  -1.6188   3.5221 H              1 <1>                0.0000
     61 H61          2.3327  -0.6586   3.7035 H              1 <1>                0.0000
     62 H62          1.7669  -1.6850   5.0432 H              1 <1>                0.0000
@<TRIPOS>BOND
    1    1    2 1     
    2    1   38 1     
    3    1   39 1     
    4    1   40 1     
    5    2    3 1     
    6    3    7 1     
    7    3    4 1     
    8    3   41 1     
    9    4    5 1     
   10    4   42 1     
   11    4   43 1     
   12    5    6 1     
   13    5   18 1     
   14    5   44 1     
   15    6    7 1     
   16    6    8 am    
   17    7   45 1     
   18    7   46 1     
   19    8    9 2     
   20    8   10 am    
   21   10   11 1     
   22   10   47 1     
   23   11   17 ar    
   24   11   12 ar    
   25   12   13 ar    
   26   12   48 1     
   27   13   14 ar    
   28   13   49 1     
   29   14   15 1     
   30   14   16 ar    
   31   16   17 ar    
   32   16   50 1     
   33   17   51 1     
   34   18   19 2     
   35   18   20 am    
   36   20   21 1     
   37   20   52 1     
   38   21   26 ar    
   39   21   22 ar    
   40   22   23 ar    
   41   22   53 1     
   42   23   24 ar    
   43   23   54 1     
   44   24   25 ar    
   45   24   28 1     
   46   25   26 ar    
   47   25   55 1     
   48   26   27 1     
   49   28   33 ar    
   50   28   29 ar    
   51   29   30 ar    
   52   29   56 1     
   53   30   31 ar    
   54   30   57 1     
   55   31   32 ar    
   56   31   58 1     
   57   32   33 ar    
   58   32   59 1     
   59   33   34 1     
   60   34   35 1     
   61   34   36 2     
   62   34   37 2     
   63   35   60 1     
   64   35   61 1     
   65   35   62 1     
@<TRIPOS>SUBSTRUCTURE
      1 ****           1
@<TRIPOS>SET
DONOR_HYDROGENS      STATIC     ATOMS    <user>   **** ""
2 47 52
ATOM$RED        STATIC     ATOMS    COLORGROUP SYSTEM
2 47 52
