#       Name:                27J
#       Creating user name   gbret
#       Creation time:       Thu Sep  8 21:07:47 2016


#       File generated by GOLD software.
#

@<TRIPOS>MOLECULE
27J
    48    49     1
SMALL
NO_CHARGES


@<TRIPOS>ATOM
      1 C1          -3.0584   1.8646   0.0471 C.3            1 <1>                0.0000
      2 C2          -3.0376   0.3347   0.0387 C.3            1 <1>                0.0000
      3 C3          -2.3187  -0.1593  -1.2188 C.3            1 <1>                0.0000
      4 C4          -1.8718   1.0415  -2.0548 C.3            1 <1>                0.0000
      5 C5          -1.2663   0.5500  -3.3710 C.3            1 <1>                0.0000
      6 C6           0.1833   1.0287  -3.4754 C.3            1 <1>                0.0000
      7 O7           0.3674   2.1755  -2.6429 O.3            1 <1>                0.0000
      8 C8           1.1233  -0.0890  -3.0193 C.3            1 <1>                0.0000
      9 C9           1.3510   0.0204  -1.5104 C.3            1 <1>                0.0000
     10 C10          2.6530  -0.6922  -1.1383 C.3            1 <1>                0.0000
     11 C11          2.6443  -1.0218   0.3558 C.3            1 <1>                0.0000
     12 C12          1.8970   0.0763   1.1150 C.3            1 <1>                0.0000
     13 C13          1.1913  -0.5254   2.3030 C.ar           1 <1>                0.0000
     14 C14          1.9203  -1.0143   3.3615 C.ar           1 <1>                0.0000
     15 C15          1.2734  -1.5704   4.4611 C.ar           1 <1>                0.0000
     16 O16          2.0008  -2.0524   5.5004 O.3            1 <1>                0.0000
     17 C17         -0.1120  -1.6336   4.4996 C.ar           1 <1>                0.0000
     18 C18         -0.8572  -1.1459   3.4403 C.ar           1 <1>                0.0000
     19 O19         -2.2119  -1.2048   3.4770 O.co2          1 <1>                0.0000
     20 C20         -0.2062  -0.5897   2.3280 C.ar           1 <1>                0.0000
     21 C21         -0.9891  -0.0810   1.1909 C.2            1 <1>                0.0000
     22 O22         -0.4218   0.3987   0.2290 O.2            1 <1>                0.0000
     23 O23         -2.3353  -0.1469   1.2152 O.3            1 <1>                0.0000
     24 H24         -2.0358   2.2419   0.0394 H              1 <1>                0.0000
     25 H25         -3.5856   2.2256  -0.8359 H              1 <1>                0.0000
     26 H26         -3.5686   2.2161   0.9439 H              1 <1>                0.0000
     27 H27         -4.0601  -0.0429   0.0456 H              1 <1>                0.0000
     28 H28         -1.4466  -0.7469  -0.9317 H              1 <1>                0.0000
     29 H29         -2.9970  -0.7785  -1.8057 H              1 <1>                0.0000
     30 H30         -2.7316   1.6775  -2.2656 H              1 <1>                0.0000
     31 H31         -1.1252   1.6115  -1.5019 H              1 <1>                0.0000
     32 H32         -1.2921  -0.5393  -3.3985 H              1 <1>                0.0000
     33 H33         -1.8416   0.9483  -4.2068 H              1 <1>                0.0000
     34 H34          0.4057   1.2912  -4.5097 H              1 <1>                0.0000
     35 H35          1.2655   2.5336  -2.6596 H              1 <1>                0.0000
     36 H36          0.6767  -1.0561  -3.2502 H              1 <1>                0.0000
     37 H37          2.0772   0.0040  -3.5384 H              1 <1>                0.0000
     38 H38          1.4184   1.0711  -1.2283 H              1 <1>                0.0000
     39 H39          0.5185  -0.4449  -0.9826 H              1 <1>                0.0000
     40 H40          2.7399  -1.6141  -1.7134 H              1 <1>                0.0000
     41 H41          3.4994  -0.0430  -1.3623 H              1 <1>                0.0000
     42 H42          2.1448  -1.9776   0.5142 H              1 <1>                0.0000
     43 H43          3.6696  -1.0826   0.7206 H              1 <1>                0.0000
     44 H44          2.6070   0.8292   1.4572 H              1 <1>                0.0000
     45 H45          1.1649   0.5410   0.4545 H              1 <1>                0.0000
     46 H46          2.9990  -0.9669   3.3393 H              1 <1>                0.0000
     47 H47          2.1859  -1.3981   6.1879 H              1 <1>                0.0000
     48 H48         -0.6091  -2.0639   5.3564 H              1 <1>                0.0000
@<TRIPOS>BOND
    1    1    2 1     
    2    1   24 1     
    3    1   25 1     
    4    1   26 1     
    5    2   23 1     
    6    2    3 1     
    7    2   27 1     
    8    3    4 1     
    9    3   28 1     
   10    3   29 1     
   11    4    5 1     
   12    4   30 1     
   13    4   31 1     
   14    5    6 1     
   15    5   32 1     
   16    5   33 1     
   17    6    7 1     
   18    6    8 1     
   19    6   34 1     
   20    7   35 1     
   21    8    9 1     
   22    8   36 1     
   23    8   37 1     
   24    9   10 1     
   25    9   38 1     
   26    9   39 1     
   27   10   11 1     
   28   10   40 1     
   29   10   41 1     
   30   11   12 1     
   31   11   42 1     
   32   11   43 1     
   33   12   13 1     
   34   12   44 1     
   35   12   45 1     
   36   13   20 ar    
   37   13   14 ar    
   38   14   15 ar    
   39   14   46 1     
   40   15   16 1     
   41   15   17 ar    
   42   16   47 1     
   43   17   18 ar    
   44   17   48 1     
   45   18   19 ar    
   46   18   20 ar    
   47   20   21 1     
   48   21   22 2     
   49   21   23 1     
@<TRIPOS>SUBSTRUCTURE
      1 ****           1
@<TRIPOS>SET
DONOR_HYDROGENS      STATIC     ATOMS    <user>   **** ""
2 35 47
ATOM$RED        STATIC     ATOMS    COLORGROUP SYSTEM
2 35 47
