#       Name:                2A0
#       Creating user name   gbret
#       Creation time:       Thu Sep  8 21:13:29 2016


#       File generated by GOLD software.
#

@<TRIPOS>MOLECULE
2A0
    42    41     1
SMALL
NO_CHARGES


@<TRIPOS>ATOM
      1 C1           3.7108   5.2111  -0.3140 C.3            1 <1>                0.0000
      2 C2           3.7316   3.6812  -0.3224 C.3            1 <1>                0.0000
      3 C3           2.2962   3.1517  -0.3115 C.3            1 <1>                0.0000
      4 C4           2.3169   1.6218  -0.3199 C.3            1 <1>                0.0000
      5 C5           0.8816   1.0922  -0.3091 C.3            1 <1>                0.0000
      6 N6           0.2076   1.4786  -1.5559 N.3            1 <1>                0.0000
      7 C7           0.9016  -0.4331  -0.1917 C.3            1 <1>                0.0000
      8 N8          -0.4688  -0.9507  -0.3015 N.4            1 <1>                0.0000
      9 H9          -1.0348  -0.5639   0.4388 H              1 <1>                0.0000
     10 H10         -0.8573  -0.6872  -1.1947 H              1 <1>                0.0000
     11 C11         -0.4495  -2.4153  -0.1889 C.3            1 <1>                0.0000
     12 C12         -1.8849  -2.9449  -0.1780 C.3            1 <1>                0.0000
     13 C13         -2.6011  -2.4515   1.0808 C.3            1 <1>                0.0000
     14 C14         -4.0364  -2.9810   1.0917 C.3            1 <1>                0.0000
     15 C15         -4.7526  -2.4876   2.3505 C.3            1 <1>                0.0000
     16 C16          0.2926  -2.9997  -1.3630 C.2            1 <1>                0.0000
     17 O17          0.8980  -4.0508  -1.2396 O.co2          1 <1>                0.0000
     18 O18          0.2878  -2.4214  -2.4364 O.co2          1 <1>                0.0000
     19 H19          4.7334   5.5884  -0.3217 H              1 <1>                0.0000
     20 H20          3.1836   5.5721  -1.1970 H              1 <1>                0.0000
     21 H21          3.2006   5.5626   0.5828 H              1 <1>                0.0000
     22 H22          4.2418   3.3297  -1.2192 H              1 <1>                0.0000
     23 H23          4.2588   3.3202   0.5607 H              1 <1>                0.0000
     24 H24          1.7860   3.5032   0.5853 H              1 <1>                0.0000
     25 H25          1.7690   3.5127  -1.1946 H              1 <1>                0.0000
     26 H26          2.8271   1.2703  -1.2167 H              1 <1>                0.0000
     27 H27          2.8441   1.2607   0.5631 H              1 <1>                0.0000
     28 H28          0.3447   1.5149   0.5402 H              1 <1>                0.0000
     29 H29          0.1242   2.4817  -1.6259 H              1 <1>                0.0000
     30 H30          0.6866   1.0987  -2.3585 H              1 <1>                0.0000
     31 H31          1.5130  -0.8511  -0.9915 H              1 <1>                0.0000
     32 H32          1.3213  -0.7178   0.7731 H              1 <1>                0.0000
     33 H33          0.0505  -2.7020   0.7363 H              1 <1>                0.0000
     34 H34         -2.4121  -2.5838  -1.0611 H              1 <1>                0.0000
     35 H35         -1.8701  -4.0348  -0.1840 H              1 <1>                0.0000
     36 H36         -2.0739  -2.8125   1.9639 H              1 <1>                0.0000
     37 H37         -2.6158  -1.3616   1.0868 H              1 <1>                0.0000
     38 H38         -4.5636  -2.6200   0.2086 H              1 <1>                0.0000
     39 H39         -4.0217  -4.0709   1.0857 H              1 <1>                0.0000
     40 H40         -5.7752  -2.8649   2.3582 H              1 <1>                0.0000
     41 H41         -4.2254  -2.8487   3.2335 H              1 <1>                0.0000
     42 H42         -4.7674  -1.3977   2.3565 H              1 <1>                0.0000
@<TRIPOS>BOND
    1    1    2 1     
    2    1   19 1     
    3    1   20 1     
    4    1   21 1     
    5    2    3 1     
    6    2   22 1     
    7    2   23 1     
    8    3    4 1     
    9    3   24 1     
   10    3   25 1     
   11    4    5 1     
   12    4   26 1     
   13    4   27 1     
   14    5    6 1     
   15    5    7 1     
   16    5   28 1     
   17    6   29 1     
   18    6   30 1     
   19    7    8 1     
   20    7   31 1     
   21    7   32 1     
   22    8    9 1     
   23    8   10 1     
   24    8   11 1     
   25   11   12 1     
   26   11   16 1     
   27   11   33 1     
   28   12   13 1     
   29   12   34 1     
   30   12   35 1     
   31   13   14 1     
   32   13   36 1     
   33   13   37 1     
   34   14   15 1     
   35   14   38 1     
   36   14   39 1     
   37   15   40 1     
   38   15   41 1     
   39   15   42 1     
   40   16   17 ar    
   41   16   18 ar    
@<TRIPOS>SUBSTRUCTURE
      1 ****           1
@<TRIPOS>SET
DONOR_HYDROGENS      STATIC     ATOMS    <user>   **** ""
4 29 30 9 10
ATOM$RED        STATIC     ATOMS    COLORGROUP SYSTEM
4 29 30 9 10
