#       Name:                2A7
#       Creating user name   gbret
#       Creation time:       Thu Sep  8 21:13:59 2016


#       File generated by GOLD software.
#

@<TRIPOS>MOLECULE
2A7
    18    18     1
SMALL
NO_CHARGES


@<TRIPOS>ATOM
      1 C1           2.0302   2.1272   0.0912 C.3            1 <1>                0.0000
      2 O2           2.0496   0.6983   0.0833 O.3            1 <1>                0.0000
      3 C3           0.8473   0.0650   0.0914 C.ar           1 <1>                0.0000
      4 C4          -0.3259   0.8044   0.1008 C.ar           1 <1>                0.0000
      5 C5          -1.5528   0.1580   0.1091 C.ar           1 <1>                0.0000
      6 O6          -2.7024   0.8826   0.1188 O.3            1 <1>                0.0000
      7 C7          -1.6065  -1.2277   0.1070 C.ar           1 <1>                0.0000
      8 C8          -0.4334  -1.9671   0.0971 C.ar           1 <1>                0.0000
      9 O9          -0.4860  -3.3250   0.0955 O.3            1 <1>                0.0000
     10 C10          0.7935  -1.3207   0.0845 C.ar           1 <1>                0.0000
     11 H11          3.0528   2.5045   0.0834 H              1 <1>                0.0000
     12 H12          1.5030   2.4883  -0.7919 H              1 <1>                0.0000
     13 H13          1.5200   2.4787   0.9880 H              1 <1>                0.0000
     14 H14         -0.2840   1.8836   0.1021 H              1 <1>                0.0000
     15 H15         -3.0418   1.0936  -0.7618 H              1 <1>                0.0000
     16 H16         -2.5620  -1.7310   0.1134 H              1 <1>                0.0000
     17 H17         -0.5079  -3.7167  -0.7884 H              1 <1>                0.0000
     18 H18          1.7071  -1.8966   0.0768 H              1 <1>                0.0000
@<TRIPOS>BOND
    1    1    2 1     
    2    1   11 1     
    3    1   12 1     
    4    1   13 1     
    5    2    3 1     
    6    3   10 ar    
    7    3    4 ar    
    8    4    5 ar    
    9    4   14 1     
   10    5    6 1     
   11    5    7 ar    
   12    6   15 1     
   13    7    8 ar    
   14    7   16 1     
   15    8    9 1     
   16    8   10 ar    
   17    9   17 1     
   18   10   18 1     
@<TRIPOS>SUBSTRUCTURE
      1 ****           1
@<TRIPOS>SET
DONOR_HYDROGENS      STATIC     ATOMS    <user>   **** ""
2 15 17
ATOM$RED        STATIC     ATOMS    COLORGROUP SYSTEM
2 15 17
