#       Name:                2BX
#       Creating user name   gbret
#       Creation time:       Thu Sep  8 21:17:49 2016


#       File generated by GOLD software.
#

@<TRIPOS>MOLECULE
2BX
    27    27     1
SMALL
NO_CHARGES


@<TRIPOS>ATOM
      1 C1          -1.4864   1.5897   0.0667 C.3            1 <1>                0.0000
      2 C2          -1.4656   0.0598   0.0583 C.3            1 <1>                0.0000
      3 C3          -2.9009  -0.4701   0.0682 C.3            1 <1>                0.0000
      4 C4          -0.7471  -0.4342  -1.1998 C.3            1 <1>                0.0000
      5 O5           0.6096   0.0180  -1.1762 O.3            1 <1>                0.0000
      6 C6           1.3376  -0.4114  -0.0223 C.3            1 <1>                0.0000
      7 C7           2.7534   0.1671  -0.0669 C.3            1 <1>                0.0000
      8 C8           3.4955  -0.4113  -1.2440 C.2            1 <1>                0.0000
      9 O9           2.9433  -1.2120  -1.9792 O.co2          1 <1>                0.0000
     10 O10          4.6482  -0.0786  -1.4612 O.co2          1 <1>                0.0000
     11 C11          0.6230   0.0827   1.2380 C.3            1 <1>                0.0000
     12 N12         -0.7550  -0.4273   1.2486 N.4            1 <1>                0.0000
     13 H13         -1.2275  -0.1026   2.0789 H              1 <1>                0.0000
     14 H14         -0.7405  -1.4362   1.2426 H              1 <1>                0.0000
     15 H15         -0.4638   1.9670   0.0590 H              1 <1>                0.0000
     16 H16         -2.0136   1.9507  -0.8163 H              1 <1>                0.0000
     17 H17         -1.9966   1.9412   0.9635 H              1 <1>                0.0000
     18 H18         -3.4276  -0.1092  -0.8152 H              1 <1>                0.0000
     19 H19         -2.8858  -1.5600   0.0622 H              1 <1>                0.0000
     20 H20         -3.4118  -0.1188   0.9647 H              1 <1>                0.0000
     21 H21         -0.7673  -1.5237  -1.2263 H              1 <1>                0.0000
     22 H22         -1.2473  -0.0385  -2.0837 H              1 <1>                0.0000
     23 H23          1.3895  -1.5001  -0.0090 H              1 <1>                0.0000
     24 H24          2.6999   1.2511  -0.1681 H              1 <1>                0.0000
     25 H25          3.2786  -0.0864   0.8540 H              1 <1>                0.0000
     26 H26          1.1511  -0.2782   2.1206 H              1 <1>                0.0000
     27 H27          0.6075   1.1725   1.2435 H              1 <1>                0.0000
@<TRIPOS>BOND
    1    1    2 1     
    2    1   15 1     
    3    1   16 1     
    4    1   17 1     
    5    2   12 1     
    6    2    3 1     
    7    2    4 1     
    8    3   18 1     
    9    3   19 1     
   10    3   20 1     
   11    4    5 1     
   12    4   21 1     
   13    4   22 1     
   14    5    6 1     
   15    6    7 1     
   16    6   11 1     
   17    6   23 1     
   18    7    8 1     
   19    7   24 1     
   20    7   25 1     
   21    8    9 ar    
   22    8   10 ar    
   23   11   12 1     
   24   11   26 1     
   25   11   27 1     
   26   12   13 1     
   27   12   14 1     
@<TRIPOS>SUBSTRUCTURE
      1 ****           1
@<TRIPOS>SET
DONOR_HYDROGENS      STATIC     ATOMS    <user>   **** ""
2 13 14
ATOM$RED        STATIC     ATOMS    COLORGROUP SYSTEM
2 13 14
