#       Name:                2EH
#       Creating user name   gbret
#       Creation time:       Thu Sep  8 21:24:02 2016


#       File generated by GOLD software.
#

@<TRIPOS>MOLECULE
2EH
    27    26     1
SMALL
NO_CHARGES


@<TRIPOS>ATOM
      1 C1          -0.5896   3.6579   1.3318 C.3            1 <1>                0.0000
      2 C2          -1.0695   2.2083   1.4277 C.3            1 <1>                0.0000
      3 C3          -0.3584   1.3645   0.3679 C.3            1 <1>                0.0000
      4 C4          -0.8384  -0.0851   0.4637 C.3            1 <1>                0.0000
      5 C5          -0.1273  -0.9289  -0.5961 C.3            1 <1>                0.0000
      6 C6           1.3707  -0.9774  -0.2887 C.3            1 <1>                0.0000
      7 C7           2.1035  -1.6816  -1.4324 C.3            1 <1>                0.0000
      8 C8          -0.6966  -2.3490  -0.5837 C.3            1 <1>                0.0000
      9 O9          -0.1426  -3.0938  -1.6702 O.3            1 <1>                0.0000
     10 H10          0.4868   3.6961   1.4991 H              1 <1>                0.0000
     11 H11         -0.8175   4.0513   0.3412 H              1 <1>                0.0000
     12 H12         -1.0962   4.2590   2.0869 H              1 <1>                0.0000
     13 H13         -0.8416   1.8149   2.4183 H              1 <1>                0.0000
     14 H14         -2.1459   2.1701   1.2604 H              1 <1>                0.0000
     15 H15         -0.5864   1.7579  -0.6228 H              1 <1>                0.0000
     16 H16          0.7180   1.4026   0.5351 H              1 <1>                0.0000
     17 H17         -0.6105  -0.4786   1.4544 H              1 <1>                0.0000
     18 H18         -1.9148  -0.1233   0.2964 H              1 <1>                0.0000
     19 H19         -0.2823  -0.4839  -1.5790 H              1 <1>                0.0000
     20 H20          1.7529   0.0379  -0.1830 H              1 <1>                0.0000
     21 H21          1.5337  -1.5254   0.6392 H              1 <1>                0.0000
     22 H22          1.8192  -1.2263  -2.3810 H              1 <1>                0.0000
     23 H23          3.1796  -1.5826  -1.2899 H              1 <1>                0.0000
     24 H24          1.8338  -2.7377  -1.4410 H              1 <1>                0.0000
     25 H25         -0.4407  -2.8349   0.3578 H              1 <1>                0.0000
     26 H26         -1.7808  -2.3067  -0.6878 H              1 <1>                0.0000
     27 H27         -0.4598  -4.0057  -1.7242 H              1 <1>                0.0000
@<TRIPOS>BOND
    1    1    2 1     
    2    1   10 1     
    3    1   11 1     
    4    1   12 1     
    5    2    3 1     
    6    2   13 1     
    7    2   14 1     
    8    3    4 1     
    9    3   15 1     
   10    3   16 1     
   11    4    5 1     
   12    4   17 1     
   13    4   18 1     
   14    5    6 1     
   15    5    8 1     
   16    5   19 1     
   17    6    7 1     
   18    6   20 1     
   19    6   21 1     
   20    7   22 1     
   21    7   23 1     
   22    7   24 1     
   23    8    9 1     
   24    8   25 1     
   25    8   26 1     
   26    9   27 1     
@<TRIPOS>SUBSTRUCTURE
      1 ****           1
@<TRIPOS>SET
DONOR_HYDROGENS      STATIC     ATOMS    <user>   **** ""
1 27
ATOM$RED        STATIC     ATOMS    COLORGROUP SYSTEM
1 27
