#       Name:                2F9
#       Creating user name   gbret
#       Creation time:       Thu Sep  8 21:25:49 2016


#       File generated by GOLD software.
#

@<TRIPOS>MOLECULE
2F9
    59    59     1
SMALL
NO_CHARGES


@<TRIPOS>ATOM
      1 C1           0.3456   2.2692   1.3539 C.3            1 <1>                0.0000
      2 C2           0.3664   0.7393   1.3455 C.3            1 <1>                0.0000
      3 C3           1.1064   0.2325   2.5850 C.3            1 <1>                0.0000
      4 C4          -1.0690   0.2098   1.3564 C.3            1 <1>                0.0000
      5 N5          -1.7905   0.7779   2.4978 N.am           1 <1>                0.0000
      6 C6          -1.7029   0.1934   3.7091 C.2            1 <1>                0.0000
      7 O7          -1.0251  -0.8053   3.8544 O.2            1 <1>                0.0000
      8 C8          -2.4304   0.7663   4.8600 C.ar           1 <1>                0.0000
      9 C9          -3.2143   1.9101   4.6946 C.ar           1 <1>                0.0000
     10 C10         -3.8910   2.4406   5.7719 C.ar           1 <1>                0.0000
     11 C11         -3.7941   1.8408   7.0182 C.ar           1 <1>                0.0000
     12 F12         -4.4594   2.3647   8.0709 F              1 <1>                0.0000
     13 C13         -3.0173   0.7049   7.1881 C.ar           1 <1>                0.0000
     14 C14         -2.3414   0.1626   6.1162 C.ar           1 <1>                0.0000
     15 C15         -1.7604   0.6061   0.0773 C.2            1 <1>                0.0000
     16 O16         -2.7576   1.2953   0.1155 O.2            1 <1>                0.0000
     17 N17         -1.2705   0.1947  -1.1089 N.am           1 <1>                0.0000
     18 C18         -1.9426   0.5801  -2.3523 C.3            1 <1>                0.0000
     19 C19         -0.9363   0.5563  -3.5046 C.3            1 <1>                0.0000
     20 O20         -0.4871  -0.7836  -3.7171 O.3            1 <1>                0.0000
     21 P21          0.5804  -1.1804  -4.8551 P.3            1 <1>                0.0000
     22 O22          0.5619  -2.7106  -5.0675 O.co2          1 <1>                0.0000
     23 O23          0.2105  -0.4724  -6.1776 O.co2          1 <1>                0.0000
     24 N24          2.1194  -0.6995  -4.3727 N.3            1 <1>                0.0000
     25 C25          2.5057  -1.3542  -3.1157 C.3            1 <1>                0.0000
     26 C26          4.0078  -1.6445  -3.1324 C.3            1 <1>                0.0000
     27 C27          4.3183  -2.6628  -4.2312 C.3            1 <1>                0.0000
     28 C28          5.7978  -2.9487  -4.2477 C.2            1 <1>                0.0000
     29 O29          6.5356  -2.3897  -3.4541 O.co2          1 <1>                0.0000
     30 O30          6.2571  -3.7389  -5.0546 O.co2          1 <1>                0.0000
     31 C31          2.1822  -0.4469  -1.9567 C.2            1 <1>                0.0000
     32 O32          1.8954  -0.9229  -0.8715 O.co2          1 <1>                0.0000
     33 O33          2.2074   0.7631  -2.1042 O.co2          1 <1>                0.0000
     34 C34         -3.0596  -0.3895  -2.6409 C.2            1 <1>                0.0000
     35 O35         -3.2744  -1.3165  -1.8785 O.co2          1 <1>                0.0000
     36 O36         -3.7486  -0.2470  -3.6366 O.co2          1 <1>                0.0000
     37 H37          1.3682   2.6465   1.3462 H              1 <1>                0.0000
     38 H38         -0.1816   2.6302   0.4709 H              1 <1>                0.0000
     39 H39         -0.1646   2.6207   2.2507 H              1 <1>                0.0000
     40 H40          0.8766   0.3878   0.4487 H              1 <1>                0.0000
     41 H41          1.1211  -0.8574   2.5791 H              1 <1>                0.0000
     42 H42          2.1290   0.6098   2.5773 H              1 <1>                0.0000
     43 H43          0.5962   0.5840   3.4818 H              1 <1>                0.0000
     44 H44         -1.0547  -0.8769   1.4400 H              1 <1>                0.0000
     45 H45         -2.3313   1.5748   2.3818 H              1 <1>                0.0000
     46 H46         -3.2898   2.3785   3.7244 H              1 <1>                0.0000
     47 H47         -4.4974   3.3252   5.6450 H              1 <1>                0.0000
     48 H48         -2.9453   0.2416   8.1610 H              1 <1>                0.0000
     49 H49         -1.7368  -0.7224   6.2494 H              1 <1>                0.0000
     50 H50         -0.4729  -0.3565  -1.1394 H              1 <1>                0.0000
     51 H51         -2.3517   1.5850  -2.2479 H              1 <1>                0.0000
     52 H52         -1.4134   0.9277  -4.4114 H              1 <1>                0.0000
     53 H53         -0.0848   1.1899  -3.2564 H              1 <1>                0.0000
     54 H54          2.7981  -0.8792  -5.0974 H              1 <1>                0.0000
     55 H55          1.9561  -2.2895  -3.0093 H              1 <1>                0.0000
     56 H56          4.5540  -0.7216  -3.3275 H              1 <1>                0.0000
     57 H57          4.3106  -2.0486  -2.1664 H              1 <1>                0.0000
     58 H58          3.7721  -3.5857  -4.0361 H              1 <1>                0.0000
     59 H59          4.0155  -2.2587  -5.1972 H              1 <1>                0.0000
@<TRIPOS>BOND
    1    1    2 1     
    2    1   37 1     
    3    1   38 1     
    4    1   39 1     
    5    2    3 1     
    6    2    4 1     
    7    2   40 1     
    8    3   41 1     
    9    3   42 1     
   10    3   43 1     
   11    4    5 1     
   12    4   15 1     
   13    4   44 1     
   14    5    6 am    
   15    5   45 1     
   16    6    7 2     
   17    6    8 1     
   18    8   14 ar    
   19    8    9 ar    
   20    9   10 ar    
   21    9   46 1     
   22   10   11 ar    
   23   10   47 1     
   24   11   12 1     
   25   11   13 ar    
   26   13   14 ar    
   27   13   48 1     
   28   14   49 1     
   29   15   16 2     
   30   15   17 am    
   31   17   18 1     
   32   17   50 1     
   33   18   19 1     
   34   18   34 1     
   35   18   51 1     
   36   19   20 1     
   37   19   52 1     
   38   19   53 1     
   39   20   21 1     
   40   21   22 ar    
   41   21   23 ar    
   42   21   24 1     
   43   24   25 1     
   44   24   54 1     
   45   25   26 1     
   46   25   31 1     
   47   25   55 1     
   48   26   27 1     
   49   26   56 1     
   50   26   57 1     
   51   27   28 1     
   52   27   58 1     
   53   27   59 1     
   54   28   29 ar    
   55   28   30 ar    
   56   31   32 ar    
   57   31   33 ar    
   58   34   35 ar    
   59   34   36 ar    
@<TRIPOS>SUBSTRUCTURE
      1 ****           1
@<TRIPOS>SET
DONOR_HYDROGENS      STATIC     ATOMS    <user>   **** ""
3 45 50 54
ATOM$RED        STATIC     ATOMS    COLORGROUP SYSTEM
3 45 50 54
