#       Name:                2H2
#       Creating user name   gbret
#       Creation time:       Thu Sep  8 21:29:42 2016


#       File generated by GOLD software.
#

@<TRIPOS>MOLECULE
2H2
    45    46     1
SMALL
NO_CHARGES


@<TRIPOS>ATOM
      1 F1           2.9000  -2.8353  -8.7401 F              1 <1>                0.0000
      2 C2           2.8810  -1.4364  -8.7324 C.3            1 <1>                0.0000
      3 F3           4.1935  -0.9522  -8.7423 F              1 <1>                0.0000
      4 F4           2.2044  -0.9730  -9.8658 F              1 <1>                0.0000
      5 C5           2.1649  -0.9430  -7.4736 C.3            1 <1>                0.0000
      6 C6           2.9049  -1.4498  -6.2341 C.3            1 <1>                0.0000
      7 N7           2.2191  -0.9774  -5.0287 N.am           1 <1>                0.0000
      8 C8           2.6956  -1.3032  -3.8109 C.2            1 <1>                0.0000
      9 O9           3.6945  -1.9893  -3.7125 O.2            1 <1>                0.0000
     10 C10          2.0044  -0.8270  -2.5958 C.ar           1 <1>                0.0000
     11 C11          0.8529  -0.0432  -2.7087 C.ar           1 <1>                0.0000
     12 C12          0.2087   0.4001  -1.5765 C.ar           1 <1>                0.0000
     13 C13          0.7060   0.0670  -0.3141 C.ar           1 <1>                0.0000
     14 C14          1.8575  -0.7162  -0.2010 C.ar           1 <1>                0.0000
     15 C15          2.4984  -1.1648  -1.3330 C.ar           1 <1>                0.0000
     16 C16          0.0357   0.5288   0.8641 C.1            1 <1>                0.0000
     17 C17         -0.5138   0.9074   1.8300 C.1            1 <1>                0.0000
     18 C18         -1.2028   1.3821   3.0411 C.3            1 <1>                0.0000
     19 N19         -0.4905   0.9023   4.2279 N.pl3          1 <1>                0.0000
     20 S20         -0.8049   1.5721   5.7094 S.o2           1 <1>                0.0000
     21 O21          0.0085   0.8772   6.6447 O.2            1 <1>                0.0000
     22 O22         -0.7545   2.9810   5.5316 O.2            1 <1>                0.0000
     23 C23         -2.4744   1.1812   6.1149 C.ar           1 <1>                0.0000
     24 C24         -3.4953   2.0327   5.7359 C.ar           1 <1>                0.0000
     25 C25         -4.8051   1.7260   6.0541 C.ar           1 <1>                0.0000
     26 C26         -5.0941   0.5676   6.7508 C.ar           1 <1>                0.0000
     27 C27         -4.0733  -0.2844   7.1290 C.ar           1 <1>                0.0000
     28 C28         -2.7639   0.0202   6.8071 C.ar           1 <1>                0.0000
     29 H29          2.1501   0.1469  -7.4676 H              1 <1>                0.0000
     30 H30          1.1423  -1.3203  -7.4658 H              1 <1>                0.0000
     31 H31          2.9196  -2.5397  -6.2401 H              1 <1>                0.0000
     32 H32          3.9275  -1.0726  -6.2418 H              1 <1>                0.0000
     33 H33          1.4222  -0.4300  -5.1072 H              1 <1>                0.0000
     34 H34          0.4689   0.2148  -3.6846 H              1 <1>                0.0000
     35 H35         -0.6812   1.0058  -1.6638 H              1 <1>                0.0000
     36 H36          2.2422  -0.9729   0.7750 H              1 <1>                0.0000
     37 H37          3.3882  -1.7705  -1.2455 H              1 <1>                0.0000
     38 H38         -1.2219   2.4719   3.0447 H              1 <1>                0.0000
     39 H39         -2.2239   1.0008   3.0512 H              1 <1>                0.0000
     40 H40          0.1652   0.1922   4.1460 H              1 <1>                0.0000
     41 H41         -3.2695   2.9377   5.1916 H              1 <1>                0.0000
     42 H42         -5.6026   2.3916   5.7586 H              1 <1>                0.0000
     43 H43         -6.1173   0.3283   7.0000 H              1 <1>                0.0000
     44 H44         -4.2990  -1.1892   7.6737 H              1 <1>                0.0000
     45 H45         -1.9663  -0.6454   7.1026 H              1 <1>                0.0000
@<TRIPOS>BOND
    1    1    2 1     
    2    2    3 1     
    3    2    4 1     
    4    2    5 1     
    5    5    6 1     
    6    5   29 1     
    7    5   30 1     
    8    6    7 1     
    9    6   31 1     
   10    6   32 1     
   11    7    8 am    
   12    7   33 1     
   13    8    9 2     
   14    8   10 1     
   15   10   15 ar    
   16   10   11 ar    
   17   11   12 ar    
   18   11   34 1     
   19   12   13 ar    
   20   12   35 1     
   21   13   14 ar    
   22   13   16 1     
   23   14   15 ar    
   24   14   36 1     
   25   15   37 1     
   26   16   17 3     
   27   17   18 1     
   28   18   19 1     
   29   18   38 1     
   30   18   39 1     
   31   19   20 1     
   32   19   40 1     
   33   20   21 2     
   34   20   22 2     
   35   20   23 1     
   36   23   28 ar    
   37   23   24 ar    
   38   24   25 ar    
   39   24   41 1     
   40   25   26 ar    
   41   25   42 1     
   42   26   27 ar    
   43   26   43 1     
   44   27   28 ar    
   45   27   44 1     
   46   28   45 1     
@<TRIPOS>SUBSTRUCTURE
      1 ****           1
@<TRIPOS>SET
DONOR_HYDROGENS      STATIC     ATOMS    <user>   **** ""
2 33 40
ATOM$RED        STATIC     ATOMS    COLORGROUP SYSTEM
2 33 40
