#       Name:                2KD
#       Creating user name   gbret
#       Creation time:       Thu Sep  8 21:35:21 2016


#       File generated by GOLD software.
#

@<TRIPOS>MOLECULE
2KD
    56    59     1
SMALL
NO_CHARGES


@<TRIPOS>ATOM
      1 C1          -2.5407   5.1090   4.5324 C.3            1 <1>                0.0000
      2 O2          -2.5216   3.6575   4.5008 O.3            1 <1>                0.0000
      3 C3          -1.9245   3.0787   3.4471 C.2            1 <1>                0.0000
      4 O4          -1.4340   3.7624   2.5800 O.2            1 <1>                0.0000
      5 C5          -1.8658   1.5763   3.3457 C.3            1 <1>                0.0000
      6 C6          -3.2873   1.0109   3.3216 C.3            1 <1>                0.0000
      7 C7          -3.2295  -0.4948   3.3441 C.ar           1 <1>                0.0000
      8 C8          -3.1701  -1.2011   2.1569 C.ar           1 <1>                0.0000
      9 C9          -3.1170  -2.5814   2.1748 C.ar           1 <1>                0.0000
     10 C10         -3.1228  -3.2589   3.3854 C.ar           1 <1>                0.0000
     11 O11         -3.0702  -4.6167   3.4057 O.3            1 <1>                0.0000
     12 C12         -3.1819  -2.5480   4.5753 C.ar           1 <1>                0.0000
     13 C13         -3.2300  -1.1676   4.5521 C.ar           1 <1>                0.0000
     14 N14         -1.1683   1.1968   2.1146 N.am           1 <1>                0.0000
     15 C15          0.1772   1.1213   2.0983 C.2            1 <1>                0.0000
     16 O16          0.8118   1.3680   3.1047 O.2            1 <1>                0.0000
     17 C17          0.8828   0.7374   0.8528 C.ar           1 <1>                0.0000
     18 C18          2.2825   0.6610   0.8652 C.ar           1 <1>                0.0000
     19 C19          2.9554   0.3013  -0.2976 C.ar           1 <1>                0.0000
     20 C20          4.4274   0.2065  -0.3352 C.2            1 <1>                0.0000
     21 O21          5.0873   0.5505   0.6353 O.co2          1 <1>                0.0000
     22 O22          4.9875  -0.2162  -1.3368 O.co2          1 <1>                0.0000
     23 C23          2.1430   0.0201  -1.4824 C.ar           1 <1>                0.0000
     24 C24          2.7284  -0.3491  -2.6951 C.ar           1 <1>                0.0000
     25 C25          1.9204  -0.6061  -3.7902 C.ar           1 <1>                0.0000
     26 C26          0.5233  -0.4974  -3.6853 C.ar           1 <1>                0.0000
     27 C27         -0.0638  -0.1396  -2.5156 C.ar           1 <1>                0.0000
     28 C28          0.7301   0.1288  -1.3807 C.ar           1 <1>                0.0000
     29 N29          0.1724   0.4751  -0.2240 N.ar           1 <1>                0.0000
     30 C30          2.5335  -0.9982  -5.0819 C.ar           1 <1>                0.0000
     31 C31          3.9188  -1.1134  -5.1926 C.ar           1 <1>                0.0000
     32 C32          4.4845  -1.4785  -6.3969 C.ar           1 <1>                0.0000
     33 C33          3.6805  -1.7304  -7.4941 C.ar           1 <1>                0.0000
     34 C34          2.3046  -1.6173  -7.3910 C.ar           1 <1>                0.0000
     35 Cl35         1.3030  -1.9346  -8.7729 Cl             1 <1>                0.0000
     36 C36          1.7271  -1.2585  -6.1885 C.ar           1 <1>                0.0000
     37 H37         -1.5180   5.4859   4.5319 H              1 <1>                0.0000
     38 H38         -3.0668   5.4847   3.6548 H              1 <1>                0.0000
     39 H39         -3.0517   5.4461   5.4343 H              1 <1>                0.0000
     40 H40         -1.3297   1.1747   4.2056 H              1 <1>                0.0000
     41 H41         -3.8347   1.3665   4.1945 H              1 <1>                0.0000
     42 H42         -3.7945   1.3415   2.4152 H              1 <1>                0.0000
     43 H43         -3.1657  -0.6731   1.2147 H              1 <1>                0.0000
     44 H44         -3.0714  -3.1326   1.2472 H              1 <1>                0.0000
     45 H45         -2.1725  -4.9752   3.4351 H              1 <1>                0.0000
     46 H46         -3.1869  -3.0732   5.5190 H              1 <1>                0.0000
     47 H47         -3.2757  -0.6136   5.4781 H              1 <1>                0.0000
     48 H48         -1.6749   0.9998   1.3112 H              1 <1>                0.0000
     49 H49          2.8327   0.8797   1.7684 H              1 <1>                0.0000
     50 H50          3.8019  -0.4330  -2.7786 H              1 <1>                0.0000
     51 H51         -0.0925  -0.7013  -4.5489 H              1 <1>                0.0000
     52 H52         -1.1391  -0.0606  -2.4532 H              1 <1>                0.0000
     53 H53          4.5479  -0.9167  -4.3370 H              1 <1>                0.0000
     54 H54          5.5574  -1.5675  -6.4833 H              1 <1>                0.0000
     55 H55          4.1278  -2.0159  -8.4347 H              1 <1>                0.0000
     56 H56          0.6537  -1.1705  -6.1086 H              1 <1>                0.0000
@<TRIPOS>BOND
    1    1    2 1     
    2    1   37 1     
    3    1   38 1     
    4    1   39 1     
    5    2    3 1     
    6    3    4 2     
    7    3    5 1     
    8    5    6 1     
    9    5   14 1     
   10    5   40 1     
   11    6    7 1     
   12    6   41 1     
   13    6   42 1     
   14    7   13 ar    
   15    7    8 ar    
   16    8    9 ar    
   17    8   43 1     
   18    9   10 ar    
   19    9   44 1     
   20   10   11 1     
   21   10   12 ar    
   22   11   45 1     
   23   12   13 ar    
   24   12   46 1     
   25   13   47 1     
   26   14   15 am    
   27   14   48 1     
   28   15   16 2     
   29   15   17 1     
   30   17   29 ar    
   31   17   18 ar    
   32   18   19 ar    
   33   18   49 1     
   34   19   20 1     
   35   19   23 ar    
   36   20   21 ar    
   37   20   22 ar    
   38   23   28 ar    
   39   23   24 ar    
   40   24   25 ar    
   41   24   50 1     
   42   25   26 ar    
   43   25   30 1     
   44   26   27 ar    
   45   26   51 1     
   46   27   28 ar    
   47   27   52 1     
   48   28   29 ar    
   49   30   36 ar    
   50   30   31 ar    
   51   31   32 ar    
   52   31   53 1     
   53   32   33 ar    
   54   32   54 1     
   55   33   34 ar    
   56   33   55 1     
   57   34   35 1     
   58   34   36 ar    
   59   36   56 1     
@<TRIPOS>SUBSTRUCTURE
      1 ****           1
@<TRIPOS>SET
DONOR_HYDROGENS      STATIC     ATOMS    <user>   **** ""
2 45 48
ATOM$RED        STATIC     ATOMS    COLORGROUP SYSTEM
2 45 48
