#       Name:                2LI
#       Creating user name   gbret
#       Creation time:       Thu Sep  8 21:37:53 2016


#       File generated by GOLD software.
#

@<TRIPOS>MOLECULE
2LI
    74    77     1
SMALL
NO_CHARGES


@<TRIPOS>ATOM
      1 C1          -0.0077  -3.7718  -0.7840 C.3            1 <1>                0.0000
      2 C2           0.2440  -3.0864   0.5342 C.2            1 <1>                0.0000
      3 O3          -0.6396  -3.0215   1.3625 O.2            1 <1>                0.0000
      4 N4           1.4510  -2.5454   0.7928 N.am           1 <1>                0.0000
      5 C5           1.6657  -1.7908   2.0300 C.3            1 <1>                0.0000
      6 C6           2.8532  -2.3849   2.7902 C.3            1 <1>                0.0000
      7 C7           2.5170  -3.7862   3.2311 C.ar           1 <1>                0.0000
      8 C8           1.9153  -3.9988   4.4571 C.ar           1 <1>                0.0000
      9 C9           1.6060  -5.2859   4.8633 C.ar           1 <1>                0.0000
     10 F10          1.0178  -5.4934   6.0617 F              1 <1>                0.0000
     11 C11          1.8991  -6.3599   4.0407 C.ar           1 <1>                0.0000
     12 C12          2.5013  -6.1459   2.8129 C.ar           1 <1>                0.0000
     13 F13          2.7880  -7.1932   2.0091 F              1 <1>                0.0000
     14 C14          2.8054  -4.8574   2.4067 C.ar           1 <1>                0.0000
     15 C15          1.9578  -0.3277   1.6909 C.3            1 <1>                0.0000
     16 O16          3.1455  -0.2500   0.9002 O.3            1 <1>                0.0000
     17 C17          0.7828   0.2580   0.9052 C.3            1 <1>                0.0000
     18 N18          1.0632   1.6628   0.5796 N.4            1 <1>                0.0000
     19 H19          1.2569   2.1726   1.4285 H              1 <1>                0.0000
     20 H20          1.8635   1.7128  -0.0328 H              1 <1>                0.0000
     21 C21         -0.1036   2.2525  -0.0903 C.3            1 <1>                0.0000
     22 C22         -1.3417   2.0773   0.7933 C.3            1 <1>                0.0000
     23 C23         -1.0258   2.5509   2.2174 C.3            1 <1>                0.0000
     24 C24         -0.4007   3.9210   2.1353 C.2            1 <1>                0.0000
     25 N25         -0.2511   4.8227   3.1196 N.pl3          1 <1>                0.0000
     26 H26         -0.5298   4.7130   4.0422 H              1 <1>                0.0000
     27 N27          0.3805   5.9512   2.5757 N.2            1 <1>                0.0000
     28 C28          0.6009   5.7255   1.3035 C.2            1 <1>                0.0000
     29 C29          0.1194   4.4540   1.0003 C.2            1 <1>                0.0000
     30 C30          0.1464   3.7463  -0.3314 C.3            1 <1>                0.0000
     31 C31         -0.3272   1.5612  -1.4106 C.ar           1 <1>                0.0000
     32 C32          0.6131   0.6691  -1.8917 C.ar           1 <1>                0.0000
     33 C33          0.4080   0.0351  -3.1026 C.ar           1 <1>                0.0000
     34 C34         -0.7376   0.2926  -3.8325 C.ar           1 <1>                0.0000
     35 C35         -1.6780   1.1837  -3.3510 C.ar           1 <1>                0.0000
     36 C36         -1.4749   1.8147  -2.1377 C.ar           1 <1>                0.0000
     37 C37         -2.9266   1.4648  -4.1468 C.3            1 <1>                0.0000
     38 C38         -2.9057   0.6413  -5.4361 C.3            1 <1>                0.0000
     39 C39         -4.1556   1.0846  -3.3186 C.3            1 <1>                0.0000
     40 C40         -2.9859   2.9538  -4.4936 C.3            1 <1>                0.0000
     41 H41         -0.3816  -3.0455  -1.5057 H              1 <1>                0.0000
     42 H42          0.9226  -4.2041  -1.1523 H              1 <1>                0.0000
     43 H43         -0.7464  -4.5617  -0.6476 H              1 <1>                0.0000
     44 H44          2.1776  -2.6557   0.1597 H              1 <1>                0.0000
     45 H45          0.7715  -1.8484   2.6505 H              1 <1>                0.0000
     46 H46          3.7266  -2.4088   2.1386 H              1 <1>                0.0000
     47 H47          3.0688  -1.7708   3.6645 H              1 <1>                0.0000
     48 H48          1.6867  -3.1606   5.0987 H              1 <1>                0.0000
     49 H49          1.6585  -7.3642   4.3569 H              1 <1>                0.0000
     50 H50          3.2749  -4.6901   1.4486 H              1 <1>                0.0000
     51 H51          2.0969   0.2380   2.6122 H              1 <1>                0.0000
     52 H52          3.1198  -0.7889   0.0977 H              1 <1>                0.0000
     53 H53          0.6437  -0.3077  -0.0160 H              1 <1>                0.0000
     54 H54         -0.1232   0.1987   1.5083 H              1 <1>                0.0000
     55 H55         -2.1635   2.6677   0.3881 H              1 <1>                0.0000
     56 H56         -1.6265   1.0254   0.8151 H              1 <1>                0.0000
     57 H57         -1.9457   2.6013   2.8000 H              1 <1>                0.0000
     58 H58         -0.3296   1.8574   2.6889 H              1 <1>                0.0000
     59 H59          1.0735   6.4064   0.6112 H              1 <1>                0.0000
     60 H60          1.1202   3.8847  -0.8011 H              1 <1>                0.0000
     61 H61         -0.6338   4.1492  -0.9772 H              1 <1>                0.0000
     62 H62          1.5080   0.4680  -1.3216 H              1 <1>                0.0000
     63 H63          1.1429  -0.6612  -3.4789 H              1 <1>                0.0000
     64 H64         -0.8975  -0.2023  -4.7790 H              1 <1>                0.0000
     65 H65         -2.2098   2.5110  -1.7615 H              1 <1>                0.0000
     66 H66         -2.8634  -0.4195  -5.1891 H              1 <1>                0.0000
     67 H67         -3.8088   0.8446  -6.0117 H              1 <1>                0.0000
     68 H68         -2.0302   0.9122  -6.0261 H              1 <1>                0.0000
     69 H69         -4.1704   1.6713  -2.4001 H              1 <1>                0.0000
     70 H70         -5.0586   1.2879  -3.8942 H              1 <1>                0.0000
     71 H71         -4.1133   0.0238  -3.0716 H              1 <1>                0.0000
     72 H72         -2.1104   3.2246  -5.0836 H              1 <1>                0.0000
     73 H73         -3.8890   3.1571  -5.0692 H              1 <1>                0.0000
     74 H74         -3.0008   3.5404  -3.5750 H              1 <1>                0.0000
@<TRIPOS>BOND
    1    1    2 1     
    2    1   41 1     
    3    1   42 1     
    4    1   43 1     
    5    2    3 2     
    6    2    4 am    
    7    4    5 1     
    8    4   44 1     
    9    5    6 1     
   10    5   15 1     
   11    5   45 1     
   12    6    7 1     
   13    6   46 1     
   14    6   47 1     
   15    7   14 ar    
   16    7    8 ar    
   17    8    9 ar    
   18    8   48 1     
   19    9   10 1     
   20    9   11 ar    
   21   11   12 ar    
   22   11   49 1     
   23   12   13 1     
   24   12   14 ar    
   25   14   50 1     
   26   15   16 1     
   27   15   17 1     
   28   15   51 1     
   29   16   52 1     
   30   17   18 1     
   31   17   53 1     
   32   17   54 1     
   33   18   19 1     
   34   18   20 1     
   35   18   21 1     
   36   21   30 1     
   37   21   22 1     
   38   21   31 1     
   39   22   23 1     
   40   22   55 1     
   41   22   56 1     
   42   23   24 1     
   43   23   57 1     
   44   23   58 1     
   45   24   29 2     
   46   24   25 1     
   47   25   26 1     
   48   25   27 1     
   49   27   28 2     
   50   28   29 1     
   51   28   59 1     
   52   29   30 1     
   53   30   60 1     
   54   30   61 1     
   55   31   36 ar    
   56   31   32 ar    
   57   32   33 ar    
   58   32   62 1     
   59   33   34 ar    
   60   33   63 1     
   61   34   35 ar    
   62   34   64 1     
   63   35   36 ar    
   64   35   37 1     
   65   36   65 1     
   66   37   38 1     
   67   37   39 1     
   68   37   40 1     
   69   38   66 1     
   70   38   67 1     
   71   38   68 1     
   72   39   69 1     
   73   39   70 1     
   74   39   71 1     
   75   40   72 1     
   76   40   73 1     
   77   40   74 1     
@<TRIPOS>SUBSTRUCTURE
      1 ****           1
@<TRIPOS>SET
DONOR_HYDROGENS      STATIC     ATOMS    <user>   **** ""
5 44 52 19 20 26
ATOM$RED        STATIC     ATOMS    COLORGROUP SYSTEM
5 44 52 19 20 26
