#       Name:                2M1
#       Creating user name   gbret
#       Creation time:       Thu Sep  8 21:39:06 2016


#       File generated by GOLD software.
#

@<TRIPOS>MOLECULE
2M1
    85    85     1
SMALL
NO_CHARGES


@<TRIPOS>ATOM
      1 C1          -2.6160   5.7001   2.2797 C.3            1 <1>                0.0000
      2 C2          -2.2069   4.2440   2.5112 C.3            1 <1>                0.0000
      3 C3          -1.0404   4.1930   3.4999 C.3            1 <1>                0.0000
      4 C4          -3.3938   3.4654   3.0821 C.3            1 <1>                0.0000
      5 C5          -3.0249   1.9850   3.1969 C.3            1 <1>                0.0000
      6 C6          -4.1637   1.2272   3.8822 C.3            1 <1>                0.0000
      7 C7          -3.7448  -0.2267   4.1093 C.3            1 <1>                0.0000
      8 S8          -5.0950  -1.1251   4.9219 S.o2           1 <1>                0.0000
      9 C9          -4.3914  -2.7888   5.0881 C.3            1 <1>                0.0000
     10 O10         -5.2832  -0.5812   6.2212 O.2            1 <1>                0.0000
     11 O11         -6.1989  -1.1875   4.0293 O.2            1 <1>                0.0000
     12 N12         -2.8058   1.4312   1.8584 N.am           1 <1>                0.0000
     13 C13         -1.6005   1.5528   1.2678 C.2            1 <1>                0.0000
     14 O14         -0.7209   2.1881   1.8097 O.2            1 <1>                0.0000
     15 C15         -1.3456   0.8993  -0.0661 C.3            1 <1>                0.0000
     16 C16         -1.9457   1.7607  -1.1790 C.3            1 <1>                0.0000
     17 C17         -3.4698   1.7765  -1.0461 C.3            1 <1>                0.0000
     18 C18         -4.0607   2.7520  -2.0660 C.3            1 <1>                0.0000
     19 C19         -4.0190   0.3723  -1.3058 C.3            1 <1>                0.0000
     20 N20          0.0980   0.7658  -0.2765 N.am           1 <1>                0.0000
     21 C21          0.5778  -0.2345  -1.0419 C.2            1 <1>                0.0000
     22 O22         -0.1877  -0.9682  -1.6306 O.2            1 <1>                0.0000
     23 C23          2.0654  -0.4412  -1.1662 C.3            1 <1>                0.0000
     24 C24          2.6593  -0.7164   0.2167 C.3            1 <1>                0.0000
     25 C25          4.1831  -0.8026   0.1093 C.3            1 <1>                0.0000
     26 C26          4.7428   0.5589  -0.3078 C.3            1 <1>                0.0000
     27 C27          4.7682  -1.2006   1.4659 C.3            1 <1>                0.0000
     28 N28          2.3280  -1.5824  -2.0464 N.am           1 <1>                0.0000
     29 C29          3.4988  -1.6673  -2.7086 C.2            1 <1>                0.0000
     30 O30          4.3366  -0.7973  -2.5755 O.2            1 <1>                0.0000
     31 O31          3.7401  -2.7162  -3.5176 O.3            1 <1>                0.0000
     32 C32          5.0221  -2.7419  -4.1988 C.3            1 <1>                0.0000
     33 C33          5.1123  -3.9802  -5.0529 C.ar           1 <1>                0.0000
     34 C34          5.6252  -5.1495  -4.5231 C.ar           1 <1>                0.0000
     35 C35          5.7079  -6.2853  -5.3066 C.ar           1 <1>                0.0000
     36 C36          5.2773  -6.2521  -6.6198 C.ar           1 <1>                0.0000
     37 C37          4.7636  -5.0830  -7.1493 C.ar           1 <1>                0.0000
     38 C38          4.6769  -3.9483  -6.3646 C.ar           1 <1>                0.0000
     39 H39         -1.7704   6.2548   1.8730 H              1 <1>                0.0000
     40 H40         -3.4470   5.7364   1.5754 H              1 <1>                0.0000
     41 H41         -2.9219   6.1463   3.2260 H              1 <1>                0.0000
     42 H42         -1.9010   3.7978   1.5650 H              1 <1>                0.0000
     43 H43         -1.3463   4.6393   4.4461 H              1 <1>                0.0000
     44 H44         -0.7490   3.1557   3.6648 H              1 <1>                0.0000
     45 H45         -0.1948   4.7477   3.0932 H              1 <1>                0.0000
     46 H46         -3.6432   3.8553   4.0690 H              1 <1>                0.0000
     47 H47         -4.2528   3.5756   2.4203 H              1 <1>                0.0000
     48 H48         -2.1137   1.8822   3.7862 H              1 <1>                0.0000
     49 H49         -4.3862   1.6953   4.8411 H              1 <1>                0.0000
     50 H50         -5.0510   1.2551   3.2498 H              1 <1>                0.0000
     51 H51         -3.5223  -0.6947   3.1504 H              1 <1>                0.0000
     52 H52         -2.8575  -0.2545   4.7418 H              1 <1>                0.0000
     53 H53         -3.4851  -2.7413   5.6918 H              1 <1>                0.0000
     54 H54         -5.1164  -3.4432   5.5720 H              1 <1>                0.0000
     55 H55         -4.1499  -3.1815   4.1004 H              1 <1>                0.0000
     56 H56         -3.5283   0.9770   1.3972 H              1 <1>                0.0000
     57 H57         -1.8078  -0.0877  -0.0813 H              1 <1>                0.0000
     58 H58         -1.5633   2.7782  -1.0972 H              1 <1>                0.0000
     59 H59         -1.6699   1.3458  -2.1484 H              1 <1>                0.0000
     60 H60         -3.7435   2.0933  -0.0396 H              1 <1>                0.0000
     61 H61         -3.7870   2.4353  -3.0724 H              1 <1>                0.0000
     62 H62         -5.1465   2.7633  -1.9713 H              1 <1>                0.0000
     63 H63         -3.6694   3.7524  -1.8809 H              1 <1>                0.0000
     64 H64         -3.6748  -0.3031  -0.5226 H              1 <1>                0.0000
     65 H65         -5.1086   0.4027  -1.3064 H              1 <1>                0.0000
     66 H66         -3.6649   0.0170  -2.2735 H              1 <1>                0.0000
     67 H67          0.7086   1.3972   0.1350 H              1 <1>                0.0000
     68 H68          2.5228   0.4546  -1.5863 H              1 <1>                0.0000
     69 H69          2.3881   0.0916   0.8960 H              1 <1>                0.0000
     70 H70          2.2681  -1.6593   0.5990 H              1 <1>                0.0000
     71 H71          4.4531  -1.5504  -0.6363 H              1 <1>                0.0000
     72 H72          5.8284   0.4975  -0.3843 H              1 <1>                0.0000
     73 H73          4.3259   0.8424  -1.2742 H              1 <1>                0.0000
     74 H74          4.4728   1.3067   0.4378 H              1 <1>                0.0000
     75 H75          4.3695  -2.1706   1.7631 H              1 <1>                0.0000
     76 H76          5.8538  -1.2620   1.3894 H              1 <1>                0.0000
     77 H77          4.4983  -0.4528   2.2115 H              1 <1>                0.0000
     78 H78          1.6592  -2.2769  -2.1527 H              1 <1>                0.0000
     79 H79          5.1163  -1.8579  -4.8294 H              1 <1>                0.0000
     80 H80          5.8251  -2.7497  -3.4617 H              1 <1>                0.0000
     81 H81          5.9616  -5.1755  -3.4972 H              1 <1>                0.0000
     82 H82          6.1092  -7.1987  -4.8929 H              1 <1>                0.0000
     83 H83          5.3426  -7.1393  -7.2321 H              1 <1>                0.0000
     84 H84          4.4275  -5.0569  -8.1754 H              1 <1>                0.0000
     85 H85          4.2756  -3.0350  -6.7783 H              1 <1>                0.0000
@<TRIPOS>BOND
    1    1    2 1     
    2    1   39 1     
    3    1   40 1     
    4    1   41 1     
    5    2    3 1     
    6    2    4 1     
    7    2   42 1     
    8    3   43 1     
    9    3   44 1     
   10    3   45 1     
   11    4    5 1     
   12    4   46 1     
   13    4   47 1     
   14    5    6 1     
   15    5   12 1     
   16    5   48 1     
   17    6    7 1     
   18    6   49 1     
   19    6   50 1     
   20    7    8 1     
   21    7   51 1     
   22    7   52 1     
   23    8    9 1     
   24    8   10 2     
   25    8   11 2     
   26    9   53 1     
   27    9   54 1     
   28    9   55 1     
   29   12   13 am    
   30   12   56 1     
   31   13   14 2     
   32   13   15 1     
   33   15   16 1     
   34   15   20 1     
   35   15   57 1     
   36   16   17 1     
   37   16   58 1     
   38   16   59 1     
   39   17   18 1     
   40   17   19 1     
   41   17   60 1     
   42   18   61 1     
   43   18   62 1     
   44   18   63 1     
   45   19   64 1     
   46   19   65 1     
   47   19   66 1     
   48   20   21 am    
   49   20   67 1     
   50   21   22 2     
   51   21   23 1     
   52   23   24 1     
   53   23   28 1     
   54   23   68 1     
   55   24   25 1     
   56   24   69 1     
   57   24   70 1     
   58   25   26 1     
   59   25   27 1     
   60   25   71 1     
   61   26   72 1     
   62   26   73 1     
   63   26   74 1     
   64   27   75 1     
   65   27   76 1     
   66   27   77 1     
   67   28   29 am    
   68   28   78 1     
   69   29   30 2     
   70   29   31 1     
   71   31   32 1     
   72   32   33 1     
   73   32   79 1     
   74   32   80 1     
   75   33   38 ar    
   76   33   34 ar    
   77   34   35 ar    
   78   34   81 1     
   79   35   36 ar    
   80   35   82 1     
   81   36   37 ar    
   82   36   83 1     
   83   37   38 ar    
   84   37   84 1     
   85   38   85 1     
@<TRIPOS>SUBSTRUCTURE
      1 ****           1
@<TRIPOS>SET
DONOR_HYDROGENS      STATIC     ATOMS    <user>   **** ""
3 56 67 78
ATOM$RED        STATIC     ATOMS    COLORGROUP SYSTEM
3 56 67 78
