#       Name:                2OZ
#       Creating user name   gbret
#       Creation time:       Thu Sep  8 21:45:38 2016


#       File generated by GOLD software.
#

@<TRIPOS>MOLECULE
2OZ
    38    39     1
SMALL
NO_CHARGES


@<TRIPOS>ATOM
      1 O1           2.5687   1.0299  -2.2504 O.3            1 <1>                0.0000
      2 C2           2.5201  -0.3139  -1.7667 C.3            1 <1>                0.0000
      3 C3           1.0629  -0.7714  -1.6776 C.3            1 <1>                0.0000
      4 C4           1.0072  -2.3015  -1.6269 C.3            1 <1>                0.0000
      5 O5           1.8273  -2.7734  -0.5560 O.3            1 <1>                0.0000
      6 C6          -0.4386  -2.7481  -1.3980 C.3            1 <1>                0.0000
      7 O7          -0.4991  -4.1757  -1.3824 O.3            1 <1>                0.0000
      8 C8          -0.9369  -2.2020  -0.0580 C.3            1 <1>                0.0000
      9 O9          -0.0928  -2.6751   0.9935 O.3            1 <1>                0.0000
     10 C10         -0.9033  -0.6708  -0.0909 C.3            1 <1>                0.0000
     11 N11          0.4523  -0.2352  -0.4535 N.am           1 <1>                0.0000
     12 C12          1.1231   0.6392   0.3223 C.2            1 <1>                0.0000
     13 S13          2.6046   1.3037  -0.2206 S.2            1 <1>                0.0000
     14 N14          0.6276   0.9906   1.5254 N.am           1 <1>                0.0000
     15 C15          1.3244   1.8989   2.3313 C.ar           1 <1>                0.0000
     16 C16          2.4696   2.5192   1.8498 C.ar           1 <1>                0.0000
     17 C17          3.1552   3.4154   2.6462 C.ar           1 <1>                0.0000
     18 C18          2.7013   3.6955   3.9241 C.ar           1 <1>                0.0000
     19 F19          3.3732   4.5728   4.7014 F              1 <1>                0.0000
     20 C20          1.5594   3.0780   4.4062 C.ar           1 <1>                0.0000
     21 C21          0.8679   2.1852   3.6111 C.ar           1 <1>                0.0000
     22 H22          3.4596   1.4047  -2.2816 H              1 <1>                0.0000
     23 H23          3.0645  -0.9659  -2.4499 H              1 <1>                0.0000
     24 H24          2.9769  -0.3610  -0.7782 H              1 <1>                0.0000
     25 H25          0.5132  -0.4123  -2.5476 H              1 <1>                0.0000
     26 H26          1.3697  -2.7102  -2.5701 H              1 <1>                0.0000
     27 H27          1.8395  -3.7360  -0.4647 H              1 <1>                0.0000
     28 H28         -1.0681  -2.3667  -2.2020 H              1 <1>                0.0000
     29 H29         -1.3877  -4.5302  -1.2414 H              1 <1>                0.0000
     30 H30         -1.9585  -2.5402   0.1155 H              1 <1>                0.0000
     31 H31         -0.3504  -2.3674   1.8732 H              1 <1>                0.0000
     32 H32         -1.6148  -0.3054  -0.8315 H              1 <1>                0.0000
     33 H33         -1.1624  -0.2784   0.8925 H              1 <1>                0.0000
     34 H34         -0.2119   0.6141   1.8329 H              1 <1>                0.0000
     35 H35          2.8241   2.3008   0.8533 H              1 <1>                0.0000
     36 H36          4.0462   3.8978   2.2722 H              1 <1>                0.0000
     37 H37          1.2074   3.2976   5.4033 H              1 <1>                0.0000
     38 H38         -0.0228   1.7041   3.9874 H              1 <1>                0.0000
@<TRIPOS>BOND
    1    1    2 1     
    2    1   22 1     
    3    2    3 1     
    4    2   23 1     
    5    2   24 1     
    6    3   11 1     
    7    3    4 1     
    8    3   25 1     
    9    4    5 1     
   10    4    6 1     
   11    4   26 1     
   12    5   27 1     
   13    6    7 1     
   14    6    8 1     
   15    6   28 1     
   16    7   29 1     
   17    8    9 1     
   18    8   10 1     
   19    8   30 1     
   20    9   31 1     
   21   10   11 1     
   22   10   32 1     
   23   10   33 1     
   24   11   12 am    
   25   12   13 2     
   26   12   14 am    
   27   14   15 1     
   28   14   34 1     
   29   15   21 ar    
   30   15   16 ar    
   31   16   17 ar    
   32   16   35 1     
   33   17   18 ar    
   34   17   36 1     
   35   18   19 1     
   36   18   20 ar    
   37   20   21 ar    
   38   20   37 1     
   39   21   38 1     
@<TRIPOS>SUBSTRUCTURE
      1 ****           1
@<TRIPOS>SET
DONOR_HYDROGENS      STATIC     ATOMS    <user>   **** ""
5 22 27 29 31 34
ATOM$RED        STATIC     ATOMS    COLORGROUP SYSTEM
5 22 27 29 31 34
