#       Name:                2QX
#       Creating user name   gbret
#       Creation time:       Thu Sep  8 21:49:52 2016


#       File generated by GOLD software.
#

@<TRIPOS>MOLECULE
2QX
   109   114     1
SMALL
NO_CHARGES


@<TRIPOS>ATOM
      1 C1           8.2147   1.7507   5.4507 C.3            1 <1>                0.0000
      2 O2           8.5590   0.6723   4.5415 O.3            1 <1>                0.0000
      3 C3           7.6525   0.3556   3.5977 C.2            1 <1>                0.0000
      4 O4           6.6024   0.9638   3.5355 O.2            1 <1>                0.0000
      5 N5           7.9099  -0.6359   2.7218 N.am           1 <1>                0.0000
      6 C6           6.9235  -0.9804   1.6948 C.3            1 <1>                0.0000
      7 C7           7.5013  -2.0566   0.7735 C.3            1 <1>                0.0000
      8 C8           7.7650  -3.3301   1.5794 C.3            1 <1>                0.0000
      9 C9           8.3874  -4.3709   0.6848 C.ar           1 <1>                0.0000
     10 C10          7.5857  -5.3267   0.0643 C.ar           1 <1>                0.0000
     11 N11          8.0913  -6.2471  -0.7204 N.ar           1 <1>                0.0000
     12 C12          9.4047  -6.3096  -0.9616 C.ar           1 <1>                0.0000
     13 C13          9.9416  -7.2985  -1.8045 C.ar           1 <1>                0.0000
     14 C14         11.2828  -7.3368  -2.0316 C.ar           1 <1>                0.0000
     15 C15         12.1389  -6.4092  -1.4411 C.ar           1 <1>                0.0000
     16 C16         11.6559  -5.4372  -0.6193 C.ar           1 <1>                0.0000
     17 C17         10.2770  -5.3675  -0.3626 C.ar           1 <1>                0.0000
     18 C18          9.7372  -4.3748   0.4769 C.ar           1 <1>                0.0000
     19 C19          6.5182  -2.3545  -0.3292 C.ar           1 <1>                0.0000
     20 C20          5.2526  -2.8168  -0.0208 C.ar           1 <1>                0.0000
     21 C21          4.3506  -3.0901  -1.0319 C.ar           1 <1>                0.0000
     22 C22          2.9713  -3.5945  -0.6944 C.3            1 <1>                0.0000
     23 C23          2.0230  -2.4068  -0.5179 C.3            1 <1>                0.0000
     24 C24          0.6225  -2.9189  -0.1752 C.3            1 <1>                0.0000
     25 C25         -0.3257  -1.7313   0.0013 C.3            1 <1>                0.0000
     26 C26         -1.7262  -2.2434   0.3440 C.3            1 <1>                0.0000
     27 C27         -2.6602  -1.0736   0.5179 C.ar           1 <1>                0.0000
     28 C28         -2.8134  -0.4922   1.7631 C.ar           1 <1>                0.0000
     29 C29         -3.6686   0.5800   1.9258 C.ar           1 <1>                0.0000
     30 C30         -4.3747   1.0745   0.8370 C.ar           1 <1>                0.0000
     31 N31         -5.2416   2.1609   0.9984 N.am           1 <1>                0.0000
     32 C32         -6.3728   2.2345   0.2694 C.2            1 <1>                0.0000
     33 O33         -6.6789   1.3222  -0.4689 O.2            1 <1>                0.0000
     34 C34         -7.2574   3.4503   0.3716 C.3            1 <1>                0.0000
     35 C35         -6.6752   4.5778  -0.4832 C.3            1 <1>                0.0000
     36 C36         -7.6165   5.7834  -0.4468 C.3            1 <1>                0.0000
     37 C37         -7.0344   6.9110  -1.3016 C.3            1 <1>                0.0000
     38 C38         -5.6661   7.3154  -0.7491 C.3            1 <1>                0.0000
     39 C39         -4.7248   6.1098  -0.7855 C.3            1 <1>                0.0000
     40 C40         -5.3070   4.9822   0.0693 C.3            1 <1>                0.0000
     41 N41         -8.6013   3.1181  -0.1078 N.am           1 <1>                0.0000
     42 C42         -9.7147   3.2707   0.8204 C.3            1 <1>                0.0000
     43 C43        -10.9226   2.4624   0.3448 C.3            1 <1>                0.0000
     44 C44        -11.1973   2.8082  -1.1237 C.3            1 <1>                0.0000
     45 C45        -10.0385   2.2767  -1.9708 C.3            1 <1>                0.0000
     46 N46        -10.1419   2.8170  -3.3330 N.4            1 <1>                0.0000
     47 H47        -10.1001   3.8245  -3.2992 H              1 <1>                0.0000
     48 H48         -9.3785   2.4672  -3.8924 H              1 <1>                0.0000
     49 H49        -11.0182   2.5302  -3.7429 H              1 <1>                0.0000
     50 C50         -8.7299   2.7003  -1.3676 C.2            1 <1>                0.0000
     51 O51         -7.7360   2.6524  -2.0610 O.2            1 <1>                0.0000
     52 C52         -4.2183   0.4887  -0.4123 C.ar           1 <1>                0.0000
     53 C53         -3.3579  -0.5802  -0.5693 C.ar           1 <1>                0.0000
     54 C54          4.7129  -2.9006  -2.3528 C.ar           1 <1>                0.0000
     55 C55          5.9773  -2.4382  -2.6634 C.ar           1 <1>                0.0000
     56 C56          6.8803  -2.1599  -1.6511 C.ar           1 <1>                0.0000
     57 F57          8.1169  -1.7077  -1.9536 F              1 <1>                0.0000
     58 H58          9.0292   1.9029   6.1589 H              1 <1>                0.0000
     59 H59          8.0511   2.6665   4.8828 H              1 <1>                0.0000
     60 H60          7.3052   1.4922   5.9931 H              1 <1>                0.0000
     61 H61          8.7481  -1.1214   2.7714 H              1 <1>                0.0000
     62 H62          6.0190  -1.3578   2.1719 H              1 <1>                0.0000
     63 H63          6.6826  -0.0926   1.1101 H              1 <1>                0.0000
     64 H64          8.4360  -1.7006   0.3404 H              1 <1>                0.0000
     65 H65          8.4437  -3.1054   2.4022 H              1 <1>                0.0000
     66 H66          6.8240  -3.7093   1.9779 H              1 <1>                0.0000
     67 H67          6.5193  -5.3091   0.2346 H              1 <1>                0.0000
     68 H68          9.2921  -8.0253  -2.2697 H              1 <1>                0.0000
     69 H69         11.6904  -8.0986  -2.6795 H              1 <1>                0.0000
     70 H70         13.1995  -6.4623  -1.6378 H              1 <1>                0.0000
     71 H71         12.3293  -4.7239  -0.1675 H              1 <1>                0.0000
     72 H72         10.3732  -3.6388   0.9462 H              1 <1>                0.0000
     73 H73          4.9684  -2.9648   1.0106 H              1 <1>                0.0000
     74 H74          2.6096  -4.2313  -1.5017 H              1 <1>                0.0000
     75 H75          3.0108  -4.1686   0.2313 H              1 <1>                0.0000
     76 H76          2.3846  -1.7700   0.2895 H              1 <1>                0.0000
     77 H77          1.9835  -1.8327  -1.4436 H              1 <1>                0.0000
     78 H78          0.2609  -3.5557  -0.9825 H              1 <1>                0.0000
     79 H79          0.6620  -3.4930   0.7505 H              1 <1>                0.0000
     80 H80          0.0359  -1.0945   0.8087 H              1 <1>                0.0000
     81 H81         -0.3652  -1.1571  -0.9244 H              1 <1>                0.0000
     82 H82         -2.0878  -2.8802  -0.4634 H              1 <1>                0.0000
     83 H83         -1.6867  -2.8175   1.2697 H              1 <1>                0.0000
     84 H84         -2.2640  -0.8772   2.6095 H              1 <1>                0.0000
     85 H85         -3.7884   1.0332   2.8988 H              1 <1>                0.0000
     86 H86         -5.0284   2.8611   1.6349 H              1 <1>                0.0000
     87 H87         -7.3120   3.7735   1.4111 H              1 <1>                0.0000
     88 H88         -6.5646   4.2341  -1.5116 H              1 <1>                0.0000
     89 H89         -8.5913   5.4953  -0.8404 H              1 <1>                0.0000
     90 H90         -7.7271   6.1272   0.5816 H              1 <1>                0.0000
     91 H91         -6.9238   6.5672  -2.3301 H              1 <1>                0.0000
     92 H92         -7.7050   7.7699  -1.2757 H              1 <1>                0.0000
     93 H93         -5.2514   8.1187  -1.3581 H              1 <1>                0.0000
     94 H94         -5.7767   7.6591   0.2793 H              1 <1>                0.0000
     95 H95         -4.6142   5.7661  -1.8140 H              1 <1>                0.0000
     96 H96         -3.7500   6.3979  -0.3919 H              1 <1>                0.0000
     97 H97         -5.4175   5.3260   1.0977 H              1 <1>                0.0000
     98 H98         -4.6364   4.1233   0.0434 H              1 <1>                0.0000
     99 H99         -9.4120   2.9195   1.8069 H              1 <1>                0.0000
    100 H100        -9.9885   4.3237   0.8847 H              1 <1>                0.0000
    101 H101       -10.7089   1.3975   0.4359 H              1 <1>                0.0000
    102 H102       -11.7934   2.7162   0.9493 H              1 <1>                0.0000
    103 H103       -12.1293   2.3414  -1.4424 H              1 <1>                0.0000
    104 H104       -11.2700   3.8897  -1.2386 H              1 <1>                0.0000
    105 H105       -10.0869   1.1884  -2.0083 H              1 <1>                0.0000
    106 H106        -4.7661   0.8709  -1.2610 H              1 <1>                0.0000
    107 H107        -3.2358  -1.0363  -1.5407 H              1 <1>                0.0000
    108 H108         4.0073  -3.1145  -3.1420 H              1 <1>                0.0000
    109 H109         6.2602  -2.2905  -3.6953 H              1 <1>                0.0000
@<TRIPOS>BOND
    1    1    2 1     
    2    1   58 1     
    3    1   59 1     
    4    1   60 1     
    5    2    3 1     
    6    3    4 2     
    7    3    5 am    
    8    5    6 1     
    9    5   61 1     
   10    6    7 1     
   11    6   62 1     
   12    6   63 1     
   13    7    8 1     
   14    7   19 1     
   15    7   64 1     
   16    8    9 1     
   17    8   65 1     
   18    8   66 1     
   19    9   18 ar    
   20    9   10 ar    
   21   10   11 ar    
   22   10   67 1     
   23   11   12 ar    
   24   12   17 ar    
   25   12   13 ar    
   26   13   14 ar    
   27   13   68 1     
   28   14   15 ar    
   29   14   69 1     
   30   15   16 ar    
   31   15   70 1     
   32   16   17 ar    
   33   16   71 1     
   34   17   18 ar    
   35   18   72 1     
   36   19   56 ar    
   37   19   20 ar    
   38   20   21 ar    
   39   20   73 1     
   40   21   22 1     
   41   21   54 ar    
   42   22   23 1     
   43   22   74 1     
   44   22   75 1     
   45   23   24 1     
   46   23   76 1     
   47   23   77 1     
   48   24   25 1     
   49   24   78 1     
   50   24   79 1     
   51   25   26 1     
   52   25   80 1     
   53   25   81 1     
   54   26   27 1     
   55   26   82 1     
   56   26   83 1     
   57   27   53 ar    
   58   27   28 ar    
   59   28   29 ar    
   60   28   84 1     
   61   29   30 ar    
   62   29   85 1     
   63   30   31 1     
   64   30   52 ar    
   65   31   32 am    
   66   31   86 1     
   67   32   33 2     
   68   32   34 1     
   69   34   35 1     
   70   34   41 1     
   71   34   87 1     
   72   35   40 1     
   73   35   36 1     
   74   35   88 1     
   75   36   37 1     
   76   36   89 1     
   77   36   90 1     
   78   37   38 1     
   79   37   91 1     
   80   37   92 1     
   81   38   39 1     
   82   38   93 1     
   83   38   94 1     
   84   39   40 1     
   85   39   95 1     
   86   39   96 1     
   87   40   97 1     
   88   40   98 1     
   89   41   50 am    
   90   41   42 1     
   91   42   43 1     
   92   42   99 1     
   93   42  100 1     
   94   43   44 1     
   95   43  101 1     
   96   43  102 1     
   97   44   45 1     
   98   44  103 1     
   99   44  104 1     
  100   45   46 1     
  101   45   50 1     
  102   45  105 1     
  103   46   47 1     
  104   46   48 1     
  105   46   49 1     
  106   50   51 2     
  107   52   53 ar    
  108   52  106 1     
  109   53  107 1     
  110   54   55 ar    
  111   54  108 1     
  112   55   56 ar    
  113   55  109 1     
  114   56   57 1     
@<TRIPOS>SUBSTRUCTURE
      1 ****           1
@<TRIPOS>SET
DONOR_HYDROGENS      STATIC     ATOMS    <user>   **** ""
5 61 86 47 48 49
ATOM$RED        STATIC     ATOMS    COLORGROUP SYSTEM
5 61 86 47 48 49
