#       Name:                2V9
#       Creating user name   gbret
#       Creation time:       Thu Sep  8 22:00:03 2016


#       File generated by GOLD software.
#

@<TRIPOS>MOLECULE
2V9
    52    59     1
SMALL
NO_CHARGES


@<TRIPOS>ATOM
      1 C1           1.0125   3.5122   0.0821 C.3            1 <1>                0.0000
      2 C2           1.0333   1.9823   0.0737 C.3            1 <1>                0.0000
      3 O3           1.6690   1.4999  -1.1114 O.3            1 <1>                0.0000
      4 C4           2.3489   0.2713  -0.8484 C.3            1 <1>                0.0000
      5 C5           2.7469   0.3270   0.6406 C.3            1 <1>                0.0000
      6 C6           1.8808   1.4501   1.2468 C.3            1 <1>                0.0000
      7 O7           2.7108   2.4888   1.7704 O.3            1 <1>                0.0000
      8 C8           0.9749   0.8884   2.3445 C.3            1 <1>                0.0000
      9 O9           1.7787   0.3410   3.3915 O.3            1 <1>                0.0000
     10 N10          1.4467  -0.8654  -1.0588 N.pl3          1 <1>                0.0000
     11 C11          1.7840  -2.1188  -1.5105 C.ar           1 <1>                0.0000
     12 C12          3.0305  -2.6754  -1.7907 C.ar           1 <1>                0.0000
     13 C13          3.0505  -3.9811  -2.2534 C.ar           1 <1>                0.0000
     14 C14          1.8930  -4.7164  -2.4374 C.ar           1 <1>                0.0000
     15 C15          0.6422  -4.1894  -2.1629 C.ar           1 <1>                0.0000
     16 C16          0.6013  -2.8768  -1.6888 C.ar           1 <1>                0.0000
     17 C17         -0.5139  -2.0263  -1.2810 C.ar           1 <1>                0.0000
     18 C18         -1.9012  -2.1581  -1.2290 C.ar           1 <1>                0.0000
     19 C19         -2.8579  -3.2191  -1.6257 C.2            1 <1>                0.0000
     20 O20         -2.5705  -4.2923  -2.1186 O.2            1 <1>                0.0000
     21 N21         -4.1001  -2.7857  -1.3439 N.2            1 <1>                0.0000
     22 C22         -4.0852  -1.5904  -0.8142 C.2            1 <1>                0.0000
     23 C23         -2.6987  -1.1213  -0.7040 C.ar           1 <1>                0.0000
     24 C24         -2.0984   0.0449  -0.2046 C.ar           1 <1>                0.0000
     25 C25         -2.5633   1.2371   0.4958 C.ar           1 <1>                0.0000
     26 C26         -3.8367   1.6303   0.9152 C.ar           1 <1>                0.0000
     27 C27         -3.9306   2.8447   1.5727 C.ar           1 <1>                0.0000
     28 C28         -2.8190   3.6352   1.8072 C.ar           1 <1>                0.0000
     29 C29         -1.5489   3.2650   1.3974 C.ar           1 <1>                0.0000
     30 C30         -1.4252   2.0486   0.7286 C.ar           1 <1>                0.0000
     31 N31         -0.3297   1.4532   0.1870 N.pl3          1 <1>                0.0000
     32 C32         -0.7067   0.2065  -0.3321 C.ar           1 <1>                0.0000
     33 C33          0.0765  -0.8129  -0.8682 C.ar           1 <1>                0.0000
     34 H34          1.9786   3.8905  -0.2521 H              1 <1>                0.0000
     35 H35          0.2309   3.8686  -0.5887 H              1 <1>                0.0000
     36 H36          0.8133   3.8673   1.0932 H              1 <1>                0.0000
     37 H37          3.2361   0.1864  -1.4759 H              1 <1>                0.0000
     38 H38          2.5281  -0.6238   1.1266 H              1 <1>                0.0000
     39 H39          3.8049   0.5693   0.7406 H              1 <1>                0.0000
     40 H40          3.2983   2.2014   2.4826 H              1 <1>                0.0000
     41 H41          0.3512   1.6875   2.7451 H              1 <1>                0.0000
     42 H42          0.3402   0.1067   1.9271 H              1 <1>                0.0000
     43 H43          1.2695  -0.0340   4.1231 H              1 <1>                0.0000
     44 H44          3.9420  -2.1127  -1.6534 H              1 <1>                0.0000
     45 H45          4.0017  -4.4404  -2.4785 H              1 <1>                0.0000
     46 H46          1.9670  -5.7290  -2.8055 H              1 <1>                0.0000
     47 H47         -0.2590  -4.7664  -2.3087 H              1 <1>                0.0000
     48 H48         -4.9580  -1.0341  -0.5058 H              1 <1>                0.0000
     49 H49         -4.7064   1.0160   0.7348 H              1 <1>                0.0000
     50 H50         -4.8979   3.1849   1.9117 H              1 <1>                0.0000
     51 H51         -2.9465   4.5731   2.3273 H              1 <1>                0.0000
     52 H52         -0.6907   3.8923   1.5881 H              1 <1>                0.0000
@<TRIPOS>BOND
    1    1    2 1     
    2    1   34 1     
    3    1   35 1     
    4    1   36 1     
    5    2    6 1     
    6    2   31 1     
    7    2    3 1     
    8    3    4 1     
    9    4    5 1     
   10    4   10 1     
   11    4   37 1     
   12    5    6 1     
   13    5   38 1     
   14    5   39 1     
   15    6    7 1     
   16    6    8 1     
   17    7   40 1     
   18    8    9 1     
   19    8   41 1     
   20    8   42 1     
   21    9   43 1     
   22   10   33 1     
   23   10   11 1     
   24   11   16 ar    
   25   11   12 ar    
   26   12   13 ar    
   27   12   44 1     
   28   13   14 ar    
   29   13   45 1     
   30   14   15 ar    
   31   14   46 1     
   32   15   16 ar    
   33   15   47 1     
   34   16   17 1     
   35   17   33 ar    
   36   17   18 ar    
   37   18   23 ar    
   38   18   19 1     
   39   19   20 2     
   40   19   21 1     
   41   21   22 2     
   42   22   23 1     
   43   22   48 1     
   44   23   24 ar    
   45   24   32 ar    
   46   24   25 1     
   47   25   30 ar    
   48   25   26 ar    
   49   26   27 ar    
   50   26   49 1     
   51   27   28 ar    
   52   27   50 1     
   53   28   29 ar    
   54   28   51 1     
   55   29   30 ar    
   56   29   52 1     
   57   30   31 1     
   58   31   32 1     
   59   32   33 ar    
@<TRIPOS>SUBSTRUCTURE
      1 ****           1
@<TRIPOS>SET
DONOR_HYDROGENS      STATIC     ATOMS    <user>   **** ""
2 40 43
ATOM$RED        STATIC     ATOMS    COLORGROUP SYSTEM
2 40 43
