#       Name:                2VS
#       Creating user name   gbret
#       Creation time:       Thu Sep  8 22:01:13 2016


#       File generated by GOLD software.
#

@<TRIPOS>MOLECULE
2VS
    15    14     1
SMALL
NO_CHARGES


@<TRIPOS>ATOM
      1 O1           1.5778   1.5614  -0.0066 O.3            1 <1>                0.0000
      2 C2           1.5962   0.2066  -0.0141 C.2            1 <1>                0.0000
      3 C3           0.4291  -0.4886  -0.0067 C.2            1 <1>                0.0000
      4 C4          -0.8042   0.2013   0.0088 C.2            1 <1>                0.0000
      5 C5          -1.9714  -0.4940   0.0162 C.2            1 <1>                0.0000
      6 C6          -3.2035   0.1952   0.0317 C.2            1 <1>                0.0000
      7 O7          -4.2466  -0.4261   0.0383 O.2            1 <1>                0.0000
      8 C8           2.8831  -0.5133  -0.0302 C.2            1 <1>                0.0000
      9 O9           2.8997  -1.7363  -0.0370 O.co2          1 <1>                0.0000
     10 O10          3.9340   0.1127  -0.0369 O.co2          1 <1>                0.0000
     11 H11          2.4557   1.9667  -0.0128 H              1 <1>                0.0000
     12 H12          0.4437  -1.5684  -0.0126 H              1 <1>                0.0000
     13 H13         -0.8188   1.2811   0.0147 H              1 <1>                0.0000
     14 H14         -1.9567  -1.5739   0.0103 H              1 <1>                0.0000
     15 H15         -3.2181   1.2751   0.0376 H              1 <1>                0.0000
@<TRIPOS>BOND
    1    1    2 1     
    2    1   11 1     
    3    2    3 2     
    4    2    8 1     
    5    3    4 1     
    6    3   12 1     
    7    4    5 2     
    8    4   13 1     
    9    5    6 1     
   10    5   14 1     
   11    6    7 2     
   12    6   15 1     
   13    8    9 ar    
   14    8   10 ar    
@<TRIPOS>SUBSTRUCTURE
      1 ****           1
@<TRIPOS>SET
DONOR_HYDROGENS      STATIC     ATOMS    <user>   **** ""
1 11
ATOM$RED        STATIC     ATOMS    COLORGROUP SYSTEM
1 11
