#       Name:                2W2
#       Creating user name   gbret
#       Creation time:       Thu Sep  8 22:01:54 2016


#       File generated by GOLD software.
#

@<TRIPOS>MOLECULE
2W2
    40    39     1
SMALL
NO_CHARGES


@<TRIPOS>ATOM
      1 N1           3.7522   3.3349  -2.6089 N.pl3          1 <1>                0.0000
      2 C2           4.0827   2.0528  -2.4639 C.cat          1 <1>                0.0000
      3 N3           5.2898   1.6301  -2.8360 N.pl3          1 <1>                0.0000
      4 H4           5.5305   0.6964  -2.7303 H              1 <1>                0.0000
      5 H5           5.9281   2.2559  -3.2126 H              1 <1>                0.0000
      6 N6           3.1827   1.1703  -1.9328 N.pl3          1 <1>                0.0000
      7 C7           1.8551   1.6353  -1.5236 C.3            1 <1>                0.0000
      8 C8           1.0515   0.4582  -0.9671 C.3            1 <1>                0.0000
      9 C9          -0.3350   0.9438  -0.5397 C.3            1 <1>                0.0000
     10 C10         -1.1385  -0.2333   0.0168 C.3            1 <1>                0.0000
     11 N11         -0.5019  -0.7228   1.2469 N.4            1 <1>                0.0000
     12 H12          0.4981  -0.7576   1.1172 H              1 <1>                0.0000
     13 H13         -0.7205  -0.0995   2.0097 H              1 <1>                0.0000
     14 C14         -1.0029  -2.0688   1.5553 C.3            1 <1>                0.0000
     15 C15         -2.5286  -2.0325   1.6643 C.3            1 <1>                0.0000
     16 C16         -2.9322  -1.2425   2.9108 C.3            1 <1>                0.0000
     17 C17         -4.4332  -1.1188   2.9630 C.2            1 <1>                0.0000
     18 O18         -5.1168  -1.6164   2.0846 O.co2          1 <1>                0.0000
     19 O19         -4.9640  -0.5210   3.8836 O.co2          1 <1>                0.0000
     20 C20         -0.6002  -3.0186   0.4568 C.2            1 <1>                0.0000
     21 O21         -0.9143  -4.1949   0.5224 O.co2          1 <1>                0.0000
     22 O22          0.0397  -2.6108  -0.4975 O.co2          1 <1>                0.0000
     23 C23         -2.5433   0.2177   0.3234 C.2            1 <1>                0.0000
     24 O24         -3.4449  -0.0194  -0.4624 O.co2          1 <1>                0.0000
     25 O25         -2.7784   0.8198   1.3573 O.co2          1 <1>                0.0000
     26 H26          4.3905   3.9607  -2.9855 H              1 <1>                0.0000
     27 H27          2.8718   3.6420  -2.3417 H              1 <1>                0.0000
     28 H28          3.4234   0.2366  -1.8272 H              1 <1>                0.0000
     29 H29          1.9592   2.4002  -0.7541 H              1 <1>                0.0000
     30 H30          1.3355   2.0549  -2.3850 H              1 <1>                0.0000
     31 H31          0.9474  -0.3067  -1.7366 H              1 <1>                0.0000
     32 H32          1.5711   0.0386  -0.1056 H              1 <1>                0.0000
     33 H33         -0.2308   1.7088   0.2298 H              1 <1>                0.0000
     34 H34         -0.8545   1.3634  -1.4011 H              1 <1>                0.0000
     35 H35         -1.1671  -1.0349  -0.7212 H              1 <1>                0.0000
     36 H36         -0.5790  -2.4064   2.5011 H              1 <1>                0.0000
     37 H37         -2.9448  -1.5519   0.7790 H              1 <1>                0.0000
     38 H38         -2.9118  -3.0502   1.7393 H              1 <1>                0.0000
     39 H39         -2.5794  -1.7632   3.8011 H              1 <1>                0.0000
     40 H40         -2.4869  -0.2484   2.8709 H              1 <1>                0.0000
@<TRIPOS>BOND
    1    1    2 ar    
    2    1   26 1     
    3    1   27 1     
    4    2    3 ar    
    5    2    6 ar    
    6    3    4 1     
    7    3    5 1     
    8    6    7 1     
    9    6   28 1     
   10    7    8 1     
   11    7   29 1     
   12    7   30 1     
   13    8    9 1     
   14    8   31 1     
   15    8   32 1     
   16    9   10 1     
   17    9   33 1     
   18    9   34 1     
   19   10   11 1     
   20   10   23 1     
   21   10   35 1     
   22   11   12 1     
   23   11   13 1     
   24   11   14 1     
   25   14   15 1     
   26   14   20 1     
   27   14   36 1     
   28   15   16 1     
   29   15   37 1     
   30   15   38 1     
   31   16   17 1     
   32   16   39 1     
   33   16   40 1     
   34   17   18 ar    
   35   17   19 ar    
   36   20   21 ar    
   37   20   22 ar    
   38   23   24 ar    
   39   23   25 ar    
@<TRIPOS>SUBSTRUCTURE
      1 ****           1
@<TRIPOS>SET
DONOR_HYDROGENS      STATIC     ATOMS    <user>   **** ""
7 26 27 4 5 28 12 13
ATOM$RED        STATIC     ATOMS    COLORGROUP SYSTEM
7 26 27 4 5 28 12 13
