#       Name:                2W4
#       Creating user name   gbret
#       Creation time:       Thu Sep  8 22:02:03 2016


#       File generated by GOLD software.
#

@<TRIPOS>MOLECULE
2W4
    56    61     1
SMALL
NO_CHARGES


@<TRIPOS>ATOM
      1 O1           5.4023  -2.0856   1.8047 O.2            1 <1>                0.0000
      2 C2           5.5490  -0.8894   1.6686 C.2            1 <1>                0.0000
      3 C3           6.9300  -0.2887   1.7227 C.3            1 <1>                0.0000
      4 C4           7.6532  -0.3003   3.0709 C.3            1 <1>                0.0000
      5 C5           8.1059  -1.2403   1.9519 C.3            1 <1>                0.0000
      6 N6           4.4774  -0.0981   1.4636 N.am           1 <1>                0.0000
      7 C7           4.5121   1.3599   1.2771 C.3            1 <1>                0.0000
      8 C8           3.0539   1.8343   1.1031 C.3            1 <1>                0.0000
      9 C9           2.2362   0.6942   1.7657 C.3            1 <1>                0.0000
     10 C10          0.8303   0.6088   1.1679 C.3            1 <1>                0.0000
     11 C11          0.0552   1.8501   1.5278 C.2            1 <1>                0.0000
     12 N12          0.4667   2.7946   2.3110 N.2            1 <1>                0.0000
     13 N13         -0.5400   3.7667   2.3890 N.am           1 <1>                0.0000
     14 H14         -0.5073   4.5878   2.9044 H              1 <1>                0.0000
     15 C15         -1.5630   3.3492   1.6145 C.2            1 <1>                0.0000
     16 O16         -2.6157   3.9346   1.4332 O.2            1 <1>                0.0000
     17 N17         -1.2032   2.1681   1.0732 N.am           1 <1>                0.0000
     18 C18         -1.9814   1.3931   0.2032 C.ar           1 <1>                0.0000
     19 C19         -1.5822   1.2193  -1.1161 C.ar           1 <1>                0.0000
     20 C20         -2.3463   0.4571  -1.9742 C.ar           1 <1>                0.0000
     21 C21         -3.5200  -0.1396  -1.5169 C.ar           1 <1>                0.0000
     22 C22         -3.9182   0.0358  -0.1927 C.ar           1 <1>                0.0000
     23 C23         -3.1481   0.7949   0.6628 C.ar           1 <1>                0.0000
     24 C24         -4.3444  -0.9599  -2.4383 C.ar           1 <1>                0.0000
     25 C25         -3.9410  -1.1394  -3.7651 C.ar           1 <1>                0.0000
     26 C26         -4.6963  -1.8976  -4.6295 C.ar           1 <1>                0.0000
     27 C27         -5.8727  -2.4940  -4.1893 C.ar           1 <1>                0.0000
     28 O28         -6.7959  -3.2715  -4.7911 O.3            1 <1>                0.0000
     29 C29         -7.7744  -3.6067  -3.9325 C.2            1 <1>                0.0000
     30 C30         -7.5390  -3.0658  -2.7296 C.2            1 <1>                0.0000
     31 C31         -6.2825  -2.3166  -2.8567 C.ar           1 <1>                0.0000
     32 C32         -5.5135  -1.5539  -1.9814 C.ar           1 <1>                0.0000
     33 C33          3.0771  -0.5519   1.3828 C.3            1 <1>                0.0000
     34 H34          7.0959   0.5681   1.0696 H              1 <1>                0.0000
     35 H35          8.2949   0.5491   3.3052 H              1 <1>                0.0000
     36 H36          7.1301  -0.7424   3.9189 H              1 <1>                0.0000
     37 H37          7.8806  -2.3009   2.0636 H              1 <1>                0.0000
     38 H38          9.0455  -1.0094   1.4499 H              1 <1>                0.0000
     39 H39          4.9546   1.8351   2.1525 H              1 <1>                0.0000
     40 H40          5.0907   1.6060   0.3868 H              1 <1>                0.0000
     41 H41          2.8908   2.7783   1.6231 H              1 <1>                0.0000
     42 H42          2.8017   1.9261   0.0467 H              1 <1>                0.0000
     43 H43          2.1914   0.8230   2.8471 H              1 <1>                0.0000
     44 H44          0.9011   0.5264   0.0834 H              1 <1>                0.0000
     45 H45          0.3187  -0.2673   1.5663 H              1 <1>                0.0000
     46 H46         -0.6727   1.6819  -1.4699 H              1 <1>                0.0000
     47 H47         -2.0359   0.3229  -2.9999 H              1 <1>                0.0000
     48 H48         -4.8274  -0.4253   0.1638 H              1 <1>                0.0000
     49 H49         -3.4562   0.9312   1.6889 H              1 <1>                0.0000
     50 H50         -3.0288  -0.6786  -4.1143 H              1 <1>                0.0000
     51 H51         -4.3751  -2.0295  -5.6522 H              1 <1>                0.0000
     52 H52         -8.6272  -4.2226  -4.1771 H              1 <1>                0.0000
     53 H53         -8.1507  -3.1610  -1.8446 H              1 <1>                0.0000
     54 H54         -5.8255  -1.4231  -0.9557 H              1 <1>                0.0000
     55 H55          2.8356  -0.8761   0.3705 H              1 <1>                0.0000
     56 H56          2.9023  -1.3603   2.0928 H              1 <1>                0.0000
@<TRIPOS>BOND
    1    1    2 2     
    2    2    3 1     
    3    2    6 am    
    4    3    5 1     
    5    3    4 1     
    6    3   34 1     
    7    4    5 1     
    8    4   35 1     
    9    4   36 1     
   10    5   37 1     
   11    5   38 1     
   12    6   33 1     
   13    6    7 1     
   14    7    8 1     
   15    7   39 1     
   16    7   40 1     
   17    8    9 1     
   18    8   41 1     
   19    8   42 1     
   20    9   10 1     
   21    9   33 1     
   22    9   43 1     
   23   10   11 1     
   24   10   44 1     
   25   10   45 1     
   26   11   17 1     
   27   11   12 2     
   28   12   13 1     
   29   13   14 1     
   30   13   15 am    
   31   15   16 2     
   32   15   17 am    
   33   17   18 1     
   34   18   23 ar    
   35   18   19 ar    
   36   19   20 ar    
   37   19   46 1     
   38   20   21 ar    
   39   20   47 1     
   40   21   22 ar    
   41   21   24 1     
   42   22   23 ar    
   43   22   48 1     
   44   23   49 1     
   45   24   32 ar    
   46   24   25 ar    
   47   25   26 ar    
   48   25   50 1     
   49   26   27 ar    
   50   26   51 1     
   51   27   31 ar    
   52   27   28 1     
   53   28   29 1     
   54   29   30 2     
   55   29   52 1     
   56   30   31 1     
   57   30   53 1     
   58   31   32 ar    
   59   32   54 1     
   60   33   55 1     
   61   33   56 1     
@<TRIPOS>SUBSTRUCTURE
      1 ****           1
@<TRIPOS>SET
DONOR_HYDROGENS      STATIC     ATOMS    <user>   **** ""
1 14
ATOM$RED        STATIC     ATOMS    COLORGROUP SYSTEM
1 14
