#       Name:                2ZV
#       Creating user name   gbret
#       Creation time:       Thu Sep  8 22:10:06 2016


#       File generated by GOLD software.
#

@<TRIPOS>MOLECULE
2ZV
    18    18     1
SMALL
NO_CHARGES


@<TRIPOS>ATOM
      1 C1          -0.0345   2.2105  -0.6423 C.3            1 <1>                0.0000
      2 C2          -0.0140   0.7036  -0.6506 C.ar           1 <1>                0.0000
      3 C3          -0.0099   0.0002  -1.8481 C.ar           1 <1>                0.0000
      4 C4           0.0094  -1.3797  -1.8215 C.ar           1 <1>                0.0000
      5 N5           0.0236  -2.0345  -0.6758 N.ar           1 <1>                0.0000
      6 C6           0.0203  -1.4002   0.4864 C.ar           1 <1>                0.0000
      7 N7           0.0356  -2.1299   1.6693 N.pl3          1 <1>                0.0000
      8 C8           0.0069  -0.0097   0.5340 C.ar           1 <1>                0.0000
      9 N9           0.0040   0.6366   1.7250 N.pl3          1 <1>                0.0000
     10 O10          1.0574   0.9373   2.2573 O.2            1 <1>                0.0000
     11 O11         -1.0521   0.9168   2.2632 O.2            1 <1>                0.0000
     12 H12          0.9880   2.5878  -0.6500 H              1 <1>                0.0000
     13 H13         -0.5616   2.5716  -1.5254 H              1 <1>                0.0000
     14 H14         -0.5447   2.5620   0.2545 H              1 <1>                0.0000
     15 H15         -0.0222   0.5275  -2.7905 H              1 <1>                0.0000
     16 H16          0.0126  -1.9306  -2.7504 H              1 <1>                0.0000
     17 H17          0.0486  -3.0994   1.6410 H              1 <1>                0.0000
     18 H18          0.0333  -1.6696   2.5232 H              1 <1>                0.0000
@<TRIPOS>BOND
    1    1    2 1     
    2    1   12 1     
    3    1   13 1     
    4    1   14 1     
    5    2    8 ar    
    6    2    3 ar    
    7    3    4 ar    
    8    3   15 1     
    9    4    5 ar    
   10    4   16 1     
   11    5    6 ar    
   12    6    7 1     
   13    6    8 ar    
   14    7   17 1     
   15    7   18 1     
   16    8    9 1     
   17    9   10 2     
   18    9   11 2     
@<TRIPOS>SUBSTRUCTURE
      1 ****           1
@<TRIPOS>SET
DONOR_HYDROGENS      STATIC     ATOMS    <user>   **** ""
2 17 18
ATOM$RED        STATIC     ATOMS    COLORGROUP SYSTEM
2 17 18
