#       Name:                31R
#       Creating user name   gbret
#       Creation time:       Thu Sep  8 22:14:11 2016


#       File generated by GOLD software.
#

@<TRIPOS>MOLECULE
31R
    36    38     1
SMALL
NO_CHARGES


@<TRIPOS>ATOM
      1 O1          -0.3238   3.9314  -1.3052 O.3            1 <1>                0.0000
      2 C2          -0.3054   2.5739  -1.3127 C.ar           1 <1>                0.0000
      3 C3          -0.3018   1.8932  -2.5194 C.ar           1 <1>                0.0000
      4 C4          -0.2826   0.5065  -2.5282 C.ar           1 <1>                0.0000
      5 O5          -0.2792  -0.1741  -3.6945 O.3            1 <1>                0.0000
      6 C6          -0.2612  -1.5157  -3.7329 C.2            1 <1>                0.0000
      7 O7          -0.2586  -2.0774  -4.8142 O.2            1 <1>                0.0000
      8 C8          -0.2447  -2.2904  -2.5606 C.2            1 <1>                0.0000
      9 C9          -0.2470  -1.6625  -1.3294 C.2            1 <1>                0.0000
     10 C10         -0.2296  -2.4446  -0.0736 C.ar           1 <1>                0.0000
     11 C11          0.6924  -2.1399   0.9290 C.ar           1 <1>                0.0000
     12 C12          0.7035  -2.8730   2.0976 C.ar           1 <1>                0.0000
     13 C13         -0.1969  -3.9083   2.2769 C.ar           1 <1>                0.0000
     14 C14         -1.1134  -4.2154   1.2869 C.ar           1 <1>                0.0000
     15 C15         -1.1388  -3.4864   0.1160 C.ar           1 <1>                0.0000
     16 C16         -0.2669  -0.1904  -1.3076 C.ar           1 <1>                0.0000
     17 C17         -0.2703   0.5108  -0.0997 C.ar           1 <1>                0.0000
     18 C18         -0.2845   1.8765  -0.1073 C.ar           1 <1>                0.0000
     19 C19         -0.2877   2.6330   1.1961 C.3            1 <1>                0.0000
     20 C20          1.1290   3.1204   1.5064 C.3            1 <1>                0.0000
     21 C21          1.1258   3.8769   2.8097 C.2            1 <1>                0.0000
     22 O22          0.0868   4.0135   3.4327 O.co2          1 <1>                0.0000
     23 O23          2.1624   4.3522   3.2412 O.co2          1 <1>                0.0000
     24 H24          0.5541   4.3367  -1.3114 H              1 <1>                0.0000
     25 H25         -0.3143   2.4407  -3.4502 H              1 <1>                0.0000
     26 H26         -0.2307  -3.3686  -2.6214 H              1 <1>                0.0000
     27 H27          1.3959  -1.3323   0.7901 H              1 <1>                0.0000
     28 H28          1.4166  -2.6386   2.8740 H              1 <1>                0.0000
     29 H29         -0.1839  -4.4794   3.1934 H              1 <1>                0.0000
     30 H30         -1.8135  -5.0247   1.4330 H              1 <1>                0.0000
     31 H31         -1.8547  -3.7271  -0.6560 H              1 <1>                0.0000
     32 H32         -0.2587  -0.0254   0.8378 H              1 <1>                0.0000
     33 H33         -0.9575   3.4894   1.1175 H              1 <1>                0.0000
     34 H34         -0.6295   1.9766   1.9963 H              1 <1>                0.0000
     35 H35          1.7988   2.2640   1.5849 H              1 <1>                0.0000
     36 H36          1.4709   3.7768   0.7061 H              1 <1>                0.0000
@<TRIPOS>BOND
    1    1    2 1     
    2    1   24 1     
    3    2   18 ar    
    4    2    3 ar    
    5    3    4 ar    
    6    3   25 1     
    7    4   16 ar    
    8    4    5 1     
    9    5    6 1     
   10    6    7 2     
   11    6    8 1     
   12    8    9 2     
   13    8   26 1     
   14    9   10 1     
   15    9   16 1     
   16   10   15 ar    
   17   10   11 ar    
   18   11   12 ar    
   19   11   27 1     
   20   12   13 ar    
   21   12   28 1     
   22   13   14 ar    
   23   13   29 1     
   24   14   15 ar    
   25   14   30 1     
   26   15   31 1     
   27   16   17 ar    
   28   17   18 ar    
   29   17   32 1     
   30   18   19 1     
   31   19   20 1     
   32   19   33 1     
   33   19   34 1     
   34   20   21 1     
   35   20   35 1     
   36   20   36 1     
   37   21   22 ar    
   38   21   23 ar    
@<TRIPOS>SUBSTRUCTURE
      1 ****           1
@<TRIPOS>SET
DONOR_HYDROGENS      STATIC     ATOMS    <user>   **** ""
1 24
ATOM$RED        STATIC     ATOMS    COLORGROUP SYSTEM
1 24
