#       Name:                33T
#       Creating user name   gbret
#       Creation time:       Thu Sep  8 22:19:04 2016


#       File generated by GOLD software.
#

@<TRIPOS>MOLECULE
33T
    49    51     1
SMALL
NO_CHARGES


@<TRIPOS>ATOM
      1 C1          -2.3707   1.0826   1.3532 C.3            1 <1>                0.0000
      2 C2          -1.9413  -0.3567   1.0617 C.3            1 <1>                0.0000
      3 C3          -1.4929  -0.4743  -0.3989 C.3            1 <1>                0.0000
      4 N4          -0.9379  -1.8144  -0.6311 N.3            1 <1>                0.0000
      5 C5           0.2630  -2.0423   0.1838 C.3            1 <1>                0.0000
      6 C6          -0.1134  -1.9890   1.6683 C.3            1 <1>                0.0000
      7 N7          -0.8099  -0.7199   1.9284 N.pl3          1 <1>                0.0000
      8 S8          -0.3331   0.2733   3.1647 S.o2           1 <1>                0.0000
      9 O9          -1.5143   0.8809   3.6695 O.2            1 <1>                0.0000
     10 O10          0.5551  -0.4880   3.9714 O.2            1 <1>                0.0000
     11 C11          0.6271   1.5680   2.4529 C.ar           1 <1>                0.0000
     12 C12          0.1489   2.8662   2.4639 C.ar           1 <1>                0.0000
     13 C13          0.8957   3.8846   1.9089 C.ar           1 <1>                0.0000
     14 C14          2.1367   3.6036   1.3348 C.ar           1 <1>                0.0000
     15 C15          2.6142   2.2925   1.3264 C.ar           1 <1>                0.0000
     16 C16          1.8594   1.2827   1.8900 C.ar           1 <1>                0.0000
     17 Cl17         2.4509  -0.3494   1.8810 Cl             1 <1>                0.0000
     18 C18          2.9417   4.6906   0.7378 C.2            1 <1>                0.0000
     19 N19          4.1395   4.4163   0.1843 N.am           1 <1>                0.0000
     20 O20          2.5231   5.8318   0.7462 O.2            1 <1>                0.0000
     21 C21         -0.6685  -2.0171  -1.9880 C.ar           1 <1>                0.0000
     22 C22          0.3119  -1.2650  -2.6224 C.ar           1 <1>                0.0000
     23 C23          0.5763  -1.4668  -3.9627 C.ar           1 <1>                0.0000
     24 C24         -0.1356  -2.4178  -4.6745 C.ar           1 <1>                0.0000
     25 F25          0.1243  -2.6132  -5.9857 F              1 <1>                0.0000
     26 C26         -1.1130  -3.1689  -4.0441 C.ar           1 <1>                0.0000
     27 C27         -1.3768  -2.9744  -2.7021 C.ar           1 <1>                0.0000
     28 C28         -2.4408  -3.7922  -2.0166 C.3            1 <1>                0.0000
     29 F29         -2.9435  -4.7454  -2.9087 F              1 <1>                0.0000
     30 F30         -1.8885  -4.4388  -0.9057 F              1 <1>                0.0000
     31 F31         -3.4782  -2.9517  -1.5989 F              1 <1>                0.0000
     32 H32         -1.4911   1.7257   1.3804 H              1 <1>                0.0000
     33 H33         -3.0474   1.4254   0.5706 H              1 <1>                0.0000
     34 H34         -2.8795   1.1219   2.3164 H              1 <1>                0.0000
     35 H35         -2.7762  -1.0325   1.2469 H              1 <1>                0.0000
     36 H36         -2.3482  -0.3160  -1.0558 H              1 <1>                0.0000
     37 H37         -0.7303   0.2763  -0.6069 H              1 <1>                0.0000
     38 H38          0.6811  -3.0213  -0.0505 H              1 <1>                0.0000
     39 H39          1.0011  -1.2699  -0.0323 H              1 <1>                0.0000
     40 H40         -0.7714  -2.8239   1.9094 H              1 <1>                0.0000
     41 H41          0.7892  -2.0428   2.2770 H              1 <1>                0.0000
     42 H42         -0.8115   3.0828   2.9079 H              1 <1>                0.0000
     43 H43          0.5207   4.8974   1.9181 H              1 <1>                0.0000
     44 H44          3.5736   2.0686   0.8838 H              1 <1>                0.0000
     45 H45          4.6676   5.1296  -0.2072 H              1 <1>                0.0000
     46 H46          4.4737   3.5057   0.1776 H              1 <1>                0.0000
     47 H47          0.8669  -0.5227  -2.0679 H              1 <1>                0.0000
     48 H48          1.3385  -0.8822  -4.4564 H              1 <1>                0.0000
     49 H49         -1.6669  -3.9100  -4.6011 H              1 <1>                0.0000
@<TRIPOS>BOND
    1    1    2 1     
    2    1   32 1     
    3    1   33 1     
    4    1   34 1     
    5    2    7 1     
    6    2    3 1     
    7    2   35 1     
    8    3    4 1     
    9    3   36 1     
   10    3   37 1     
   11    4    5 1     
   12    4   21 1     
   13    5    6 1     
   14    5   38 1     
   15    5   39 1     
   16    6    7 1     
   17    6   40 1     
   18    6   41 1     
   19    7    8 1     
   20    8    9 2     
   21    8   10 2     
   22    8   11 1     
   23   11   16 ar    
   24   11   12 ar    
   25   12   13 ar    
   26   12   42 1     
   27   13   14 ar    
   28   13   43 1     
   29   14   15 ar    
   30   14   18 1     
   31   15   16 ar    
   32   15   44 1     
   33   16   17 1     
   34   18   19 am    
   35   18   20 2     
   36   19   45 1     
   37   19   46 1     
   38   21   27 ar    
   39   21   22 ar    
   40   22   23 ar    
   41   22   47 1     
   42   23   24 ar    
   43   23   48 1     
   44   24   25 1     
   45   24   26 ar    
   46   26   27 ar    
   47   26   49 1     
   48   27   28 1     
   49   28   29 1     
   50   28   30 1     
   51   28   31 1     
@<TRIPOS>SUBSTRUCTURE
      1 ****           1
@<TRIPOS>SET
DONOR_HYDROGENS      STATIC     ATOMS    <user>   **** ""
2 45 46
ATOM$RED        STATIC     ATOMS    COLORGROUP SYSTEM
2 45 46
