#       Name:                35C
#       Creating user name   gbret
#       Creation time:       Thu Sep  8 22:22:45 2016


#       File generated by GOLD software.
#

@<TRIPOS>MOLECULE
35C
    14    14     1
SMALL
NO_CHARGES


@<TRIPOS>ATOM
      1 O1          -0.1613   2.4279  -0.1981 O.3            1 <1>                0.0000
      2 C2          -0.1428   1.0681  -0.2056 C.ar           1 <1>                0.0000
      3 C3          -0.1391   0.3805  -1.4089 C.ar           1 <1>                0.0000
      4 C4          -0.1209  -1.0026  -1.4152 C.ar           1 <1>                0.0000
      5 Cl5         -0.1163  -1.8620  -2.9236 Cl             1 <1>                0.0000
      6 C6          -0.1058  -1.7025  -0.2218 C.ar           1 <1>                0.0000
      7 C7          -0.1089  -1.0215   0.9823 C.ar           1 <1>                0.0000
      8 Cl8         -0.0900  -1.9026   2.4780 Cl             1 <1>                0.0000
      9 C9          -0.1219   0.3650   0.9944 C.ar           1 <1>                0.0000
     10 O10         -0.1250   1.0362   2.1777 O.3            1 <1>                0.0000
     11 H11          0.7167   2.8332  -0.2043 H              1 <1>                0.0000
     12 H12         -0.1509   0.9246  -2.3417 H              1 <1>                0.0000
     13 H13         -0.0919  -2.7823  -0.2303 H              1 <1>                0.0000
     14 H14          0.7575   1.2385   2.5175 H              1 <1>                0.0000
@<TRIPOS>BOND
    1    1    2 1     
    2    1   11 1     
    3    2    9 ar    
    4    2    3 ar    
    5    3    4 ar    
    6    3   12 1     
    7    4    5 1     
    8    4    6 ar    
    9    6    7 ar    
   10    6   13 1     
   11    7    8 1     
   12    7    9 ar    
   13    9   10 1     
   14   10   14 1     
@<TRIPOS>SUBSTRUCTURE
      1 ****           1
@<TRIPOS>SET
DONOR_HYDROGENS      STATIC     ATOMS    <user>   **** ""
2 11 14
ATOM$RED        STATIC     ATOMS    COLORGROUP SYSTEM
2 11 14
