#       Name:                35R
#       Creating user name   gbret
#       Creation time:       Thu Sep  8 22:23:39 2016


#       File generated by GOLD software.
#

@<TRIPOS>MOLECULE
35R
    52    56     1
SMALL
NO_CHARGES


@<TRIPOS>ATOM
      1 O1           2.4602  -5.4044   0.6702 O.2            1 <1>                0.0000
      2 C2           2.4437  -4.1885   0.6769 C.2            1 <1>                0.0000
      3 N3           3.6016  -3.4988   0.6696 N.am           1 <1>                0.0000
      4 C4           4.8801  -4.2140   0.6535 C.3            1 <1>                0.0000
      5 C5           5.9673  -3.6964  -0.2904 C.3            1 <1>                0.0000
      6 C6           6.1025  -3.4884   1.2193 C.3            1 <1>                0.0000
      7 N7           1.2675  -3.5306   0.6861 N.am           1 <1>                0.0000
      8 C8           0.0599  -4.2498   0.6879 C.2            1 <1>                0.0000
      9 C9          -0.0662  -5.5990   0.6871 C.2            1 <1>                0.0000
     10 N10         -1.3931  -5.8935   0.6903 N.pl3          1 <1>                0.0000
     11 H11         -1.7785  -6.7837   0.6908 H              1 <1>                0.0000
     12 N12         -2.1074  -4.6888   0.6931 N.2            1 <1>                0.0000
     13 C13         -1.2405  -3.6950   0.6971 C.2            1 <1>                0.0000
     14 C14         -1.5704  -2.2548   0.7010 C.2            1 <1>                0.0000
     15 N15         -0.6933  -1.2802   0.6997 N.2            1 <1>                0.0000
     16 C16         -1.3377  -0.0875   0.7035 C.ar           1 <1>                0.0000
     17 C17         -0.9001   1.2408   0.7041 C.ar           1 <1>                0.0000
     18 C18         -1.8120   2.2580   0.7085 C.ar           1 <1>                0.0000
     19 C19         -1.3349   3.6874   0.7086 C.3            1 <1>                0.0000
     20 N20         -1.1847   4.1536  -0.6763 N.4            1 <1>                0.0000
     21 H21         -0.5747   3.5259  -1.1783 H              1 <1>                0.0000
     22 C22         -2.5010   4.1837  -1.3286 C.3            1 <1>                0.0000
     23 C23         -2.3419   4.6695  -2.7714 C.3            1 <1>                0.0000
     24 O24         -1.7271   5.9610  -2.7690 O.3            1 <1>                0.0000
     25 C25         -0.4515   5.9881  -2.1226 C.3            1 <1>                0.0000
     26 C26         -0.6069   5.5046  -0.6786 C.3            1 <1>                0.0000
     27 C27         -3.1732   1.9883   0.7126 C.ar           1 <1>                0.0000
     28 C28         -3.6280   0.6863   0.7125 C.ar           1 <1>                0.0000
     29 C29         -2.7169  -0.3606   0.7076 C.ar           1 <1>                0.0000
     30 N30         -2.8378  -1.7371   0.7008 N.pl3          1 <1>                0.0000
     31 H31         -3.6659  -2.2422   0.6977 H              1 <1>                0.0000
     32 H32          3.5884  -2.5289   0.6749 H              1 <1>                0.0000
     33 H33          4.8181  -5.2912   0.8077 H              1 <1>                0.0000
     34 H34          6.6207  -4.4332  -0.7575 H              1 <1>                0.0000
     35 H35          5.7313  -2.8238  -0.8995 H              1 <1>                0.0000
     36 H36          5.9555  -2.4790   1.6035 H              1 <1>                0.0000
     37 H37          6.8450  -4.0884   1.7455 H              1 <1>                0.0000
     38 H38          1.2543  -2.5607   0.6914 H              1 <1>                0.0000
     39 H39          0.7437  -6.3134   0.6841 H              1 <1>                0.0000
     40 H40          0.1569   1.4621   0.7013 H              1 <1>                0.0000
     41 H41         -2.0622   4.3132   1.2258 H              1 <1>                0.0000
     42 H42         -0.3738   3.7496   1.2192 H              1 <1>                0.0000
     43 H43         -2.9303   3.1818  -1.3275 H              1 <1>                0.0000
     44 H44         -3.1598   4.8625  -0.7870 H              1 <1>                0.0000
     45 H45         -1.7156   3.9693  -3.3243 H              1 <1>                0.0000
     46 H46         -3.3219   4.7338  -3.2441 H              1 <1>                0.0000
     47 H47          0.2395   5.3330  -2.6533 H              1 <1>                0.0000
     48 H48         -0.0634   7.0066  -2.1257 H              1 <1>                0.0000
     49 H49         -1.2664   6.1828  -0.1371 H              1 <1>                0.0000
     50 H50          0.3698   5.4834  -0.1951 H              1 <1>                0.0000
     51 H51         -3.8814   2.8037   0.7161 H              1 <1>                0.0000
     52 H52         -4.6885   0.4823   0.7164 H              1 <1>                0.0000
@<TRIPOS>BOND
    1    1    2 2     
    2    2    3 am    
    3    2    7 am    
    4    3    4 1     
    5    3   32 1     
    6    4    6 1     
    7    4    5 1     
    8    4   33 1     
    9    5    6 1     
   10    5   34 1     
   11    5   35 1     
   12    6   36 1     
   13    6   37 1     
   14    7    8 1     
   15    7   38 1     
   16    8   13 1     
   17    8    9 2     
   18    9   10 1     
   19    9   39 1     
   20   10   11 1     
   21   10   12 1     
   22   12   13 2     
   23   13   14 1     
   24   14   30 1     
   25   14   15 2     
   26   15   16 1     
   27   16   29 ar    
   28   16   17 ar    
   29   17   18 ar    
   30   17   40 1     
   31   18   19 1     
   32   18   27 ar    
   33   19   20 1     
   34   19   41 1     
   35   19   42 1     
   36   20   21 1     
   37   20   26 1     
   38   20   22 1     
   39   22   23 1     
   40   22   43 1     
   41   22   44 1     
   42   23   24 1     
   43   23   45 1     
   44   23   46 1     
   45   24   25 1     
   46   25   26 1     
   47   25   47 1     
   48   25   48 1     
   49   26   49 1     
   50   26   50 1     
   51   27   28 ar    
   52   27   51 1     
   53   28   29 ar    
   54   28   52 1     
   55   29   30 1     
   56   30   31 1     
@<TRIPOS>SUBSTRUCTURE
      1 ****           1
@<TRIPOS>SET
DONOR_HYDROGENS      STATIC     ATOMS    <user>   **** ""
5 32 38 11 21 31
ATOM$RED        STATIC     ATOMS    COLORGROUP SYSTEM
5 32 38 11 21 31
