#       Name:                38A
#       Creating user name   gbret
#       Creation time:       Thu Sep  8 22:29:07 2016


#       File generated by GOLD software.
#

@<TRIPOS>MOLECULE
38A
    33    33     1
SMALL
NO_CHARGES


@<TRIPOS>ATOM
      1 C1          -0.1995   2.8870   0.0165 C.3            1 <1>                0.0000
      2 C2          -0.1790   1.3801   0.0082 C.ar           1 <1>                0.0000
      3 C3          -0.1754   0.6955  -1.1927 C.ar           1 <1>                0.0000
      4 C4          -0.1918   1.4561  -2.4936 C.3            1 <1>                0.0000
      5 O5           1.1501   1.7148  -2.9112 O.3            1 <1>                0.0000
      6 C6          -0.1562  -0.6867  -1.2003 C.ar           1 <1>                0.0000
      7 C7          -0.1517  -1.4330  -2.5095 C.3            1 <1>                0.0000
      8 C8          -0.1406  -1.3843  -0.0070 C.ar           1 <1>                0.0000
      9 C9          -0.1192  -2.8911  -0.0153 C.3            1 <1>                0.0000
     10 O10          1.2347  -3.3482  -0.0243 O.3            1 <1>                0.0000
     11 C11         -0.1443  -0.6997   1.1939 C.ar           1 <1>                0.0000
     12 C12         -0.1269  -1.4602   2.4948 C.3            1 <1>                0.0000
     13 C13         -0.1582   0.6826   1.2015 C.ar           1 <1>                0.0000
     14 C14         -0.1622   1.4289   2.5107 C.3            1 <1>                0.0000
     15 O15          1.1837   1.6785   2.9209 O.3            1 <1>                0.0000
     16 H16          0.8231   3.2643   0.0088 H              1 <1>                0.0000
     17 H17         -0.7266   3.2481  -0.8666 H              1 <1>                0.0000
     18 H18         -0.7097   3.2385   0.9133 H              1 <1>                0.0000
     19 H19         -0.7013   0.8642  -3.2541 H              1 <1>                0.0000
     20 H20         -0.7179   2.4007  -2.3556 H              1 <1>                0.0000
     21 H21          1.2159   2.2023  -3.7437 H              1 <1>                0.0000
     22 H22          0.8769  -1.5986  -2.8298 H              1 <1>                0.0000
     23 H23         -0.6516  -2.3931  -2.3821 H              1 <1>                0.0000
     24 H24         -0.6771  -0.8470  -3.2636 H              1 <1>                0.0000
     25 H25         -0.6235  -3.2665   0.8751 H              1 <1>                0.0000
     26 H26         -0.6320  -3.2569  -0.9048 H              1 <1>                0.0000
     27 H27          1.3248  -4.3109  -0.0299 H              1 <1>                0.0000
     28 H28          0.9049  -1.6289   2.8033 H              1 <1>                0.0000
     29 H29         -0.6451  -0.8826   3.2603 H              1 <1>                0.0000
     30 H30         -0.6278  -2.4191   2.3619 H              1 <1>                0.0000
     31 H31         -0.6860   2.3768   2.3870 H              1 <1>                0.0000
     32 H32         -0.6680   0.8306   3.2685 H              1 <1>                0.0000
     33 H33          1.2575   2.1566   3.7581 H              1 <1>                0.0000
@<TRIPOS>BOND
    1    1    2 1     
    2    1   16 1     
    3    1   17 1     
    4    1   18 1     
    5    2   13 ar    
    6    2    3 ar    
    7    3    4 1     
    8    3    6 ar    
    9    4    5 1     
   10    4   19 1     
   11    4   20 1     
   12    5   21 1     
   13    6    7 1     
   14    6    8 ar    
   15    7   22 1     
   16    7   23 1     
   17    7   24 1     
   18    8    9 1     
   19    8   11 ar    
   20    9   10 1     
   21    9   25 1     
   22    9   26 1     
   23   10   27 1     
   24   11   12 1     
   25   11   13 ar    
   26   12   28 1     
   27   12   29 1     
   28   12   30 1     
   29   13   14 1     
   30   14   15 1     
   31   14   31 1     
   32   14   32 1     
   33   15   33 1     
@<TRIPOS>SUBSTRUCTURE
      1 ****           1
@<TRIPOS>SET
DONOR_HYDROGENS      STATIC     ATOMS    <user>   **** ""
3 21 27 33
ATOM$RED        STATIC     ATOMS    COLORGROUP SYSTEM
3 21 27 33
