#       Name:                38K
#       Creating user name   gbret
#       Creation time:       Thu Sep  8 22:29:45 2016


#       File generated by GOLD software.
#

@<TRIPOS>MOLECULE
38K
    52    55     1
SMALL
NO_CHARGES


@<TRIPOS>ATOM
      1 C1          -1.5613   8.1848  -0.5893 C.3            1 <1>                0.0000
      2 O2          -0.7313   7.3034  -1.3485 O.3            1 <1>                0.0000
      3 C3          -0.6966   6.0060  -0.9617 C.ar           1 <1>                0.0000
      4 N4          -1.4238   5.6261   0.0771 N.ar           1 <1>                0.0000
      5 C5          -1.4202   4.3690   0.4888 C.ar           1 <1>                0.0000
      6 C6          -0.6351   3.4363  -0.1880 C.ar           1 <1>                0.0000
      7 C7           0.1229   3.8775  -1.2857 C.ar           1 <1>                0.0000
      8 O8           0.9019   3.0116  -1.9770 O.3            1 <1>                0.0000
      9 C9           1.6404   3.5416  -3.0796 C.3            1 <1>                0.0000
     10 N10          0.0590   5.1551  -1.6368 N.ar           1 <1>                0.0000
     11 C11         -0.6007   2.0172   0.2396 C.ar           1 <1>                0.0000
     12 C12         -0.7912   1.0002  -0.7091 C.ar           1 <1>                0.0000
     13 C13         -0.7636  -0.3077  -0.3392 C.ar           1 <1>                0.0000
     14 C14         -0.5429  -0.6518   1.0029 C.ar           1 <1>                0.0000
     15 C15         -0.5086  -2.0051   1.4154 C.ar           1 <1>                0.0000
     16 N16         -0.6923  -3.0352   0.5046 N.pl3          1 <1>                0.0000
     17 C17          0.3928  -3.5190  -0.2315 C.ar           1 <1>                0.0000
     18 C18          1.6782  -3.0669   0.0463 C.ar           1 <1>                0.0000
     19 C19          2.7551  -3.5418  -0.6785 C.ar           1 <1>                0.0000
     20 C20          2.5626  -4.4678  -1.6833 C.ar           1 <1>                0.0000
     21 C21          1.2754  -4.9289  -1.9709 C.ar           1 <1>                0.0000
     22 C22          0.1884  -4.4536  -1.2345 C.ar           1 <1>                0.0000
     23 C23          1.0661  -5.9187  -3.0451 C.2            1 <1>                0.0000
     24 O24          2.0203  -6.3369  -3.6855 O.co2          1 <1>                0.0000
     25 O25         -0.0615  -6.3207  -3.2949 O.co2          1 <1>                0.0000
     26 C26         -0.2853  -2.2695   2.7580 C.ar           1 <1>                0.0000
     27 C27         -0.1046  -1.2177   3.6455 C.ar           1 <1>                0.0000
     28 N28         -0.1388   0.0341   3.2518 N.ar           1 <1>                0.0000
     29 C29         -0.3492   0.3630   1.9711 C.ar           1 <1>                0.0000
     30 C30         -0.3756   1.7072   1.5685 C.ar           1 <1>                0.0000
     31 S31         -0.2318  -3.9335   3.3352 S.o2           1 <1>                0.0000
     32 N32         -1.7354  -4.5843   3.0947 N.pl3          1 <1>                0.0000
     33 O33          0.6509  -4.6311   2.4671 O.2            1 <1>                0.0000
     34 O34         -0.0448  -3.8643   4.7421 O.2            1 <1>                0.0000
     35 H35         -1.4977   9.1908  -1.0039 H              1 <1>                0.0000
     36 H36         -2.5939   7.8386  -0.6324 H              1 <1>                0.0000
     37 H37         -1.2252   8.1972   0.4475 H              1 <1>                0.0000
     38 H38         -2.0168   4.0693   1.3377 H              1 <1>                0.0000
     39 H39          2.2209   2.7449  -3.5446 H              1 <1>                0.0000
     40 H40          0.9500   3.9623  -3.8107 H              1 <1>                0.0000
     41 H41          2.3135   4.3220  -2.7246 H              1 <1>                0.0000
     42 H42         -0.9618   1.2594  -1.7435 H              1 <1>                0.0000
     43 H43         -0.9118  -1.0814  -1.0780 H              1 <1>                0.0000
     44 H44         -1.5739  -3.4198   0.3786 H              1 <1>                0.0000
     45 H45          1.8356  -2.3417   0.8310 H              1 <1>                0.0000
     46 H46          3.7509  -3.1867  -0.4578 H              1 <1>                0.0000
     47 H47          3.4067  -4.8358  -2.2477 H              1 <1>                0.0000
     48 H48         -0.8091  -4.8062  -1.4516 H              1 <1>                0.0000
     49 H49          0.0686  -1.4353   4.6891 H              1 <1>                0.0000
     50 H50         -0.2251   2.4944   2.2924 H              1 <1>                0.0000
     51 H51         -1.8311  -5.5344   2.9242 H              1 <1>                0.0000
     52 H52         -2.5206  -4.0155   3.1244 H              1 <1>                0.0000
@<TRIPOS>BOND
    1    1    2 1     
    2    1   35 1     
    3    1   36 1     
    4    1   37 1     
    5    2    3 1     
    6    3   10 ar    
    7    3    4 ar    
    8    4    5 ar    
    9    5    6 ar    
   10    5   38 1     
   11    6    7 ar    
   12    6   11 1     
   13    7    8 1     
   14    7   10 ar    
   15    8    9 1     
   16    9   39 1     
   17    9   40 1     
   18    9   41 1     
   19   11   30 ar    
   20   11   12 ar    
   21   12   13 ar    
   22   12   42 1     
   23   13   14 ar    
   24   13   43 1     
   25   14   29 ar    
   26   14   15 ar    
   27   15   16 1     
   28   15   26 ar    
   29   16   17 1     
   30   16   44 1     
   31   17   22 ar    
   32   17   18 ar    
   33   18   19 ar    
   34   18   45 1     
   35   19   20 ar    
   36   19   46 1     
   37   20   21 ar    
   38   20   47 1     
   39   21   22 ar    
   40   21   23 1     
   41   22   48 1     
   42   23   24 ar    
   43   23   25 ar    
   44   26   27 ar    
   45   26   31 1     
   46   27   28 ar    
   47   27   49 1     
   48   28   29 ar    
   49   29   30 ar    
   50   30   50 1     
   51   31   32 1     
   52   31   33 2     
   53   31   34 2     
   54   32   51 1     
   55   32   52 1     
@<TRIPOS>SUBSTRUCTURE
      1 ****           1
@<TRIPOS>SET
DONOR_HYDROGENS      STATIC     ATOMS    <user>   **** ""
3 44 51 52
ATOM$RED        STATIC     ATOMS    COLORGROUP SYSTEM
3 44 51 52
