#       Name:                393
#       Creating user name   gbret
#       Creation time:       Thu Sep  8 22:31:04 2016


#       File generated by GOLD software.
#

@<TRIPOS>MOLECULE
393
    37    38     1
SMALL
NO_CHARGES


@<TRIPOS>ATOM
      1 O1           5.4725   1.0752   0.1297 O.co2          1 <1>                0.0000
      2 C2           5.4559   2.2943   0.1364 C.2            1 <1>                0.0000
      3 O3           6.5034   2.9182   0.1298 O.co2          1 <1>                0.0000
      4 C4           4.1408   3.0300   0.1467 C.3            1 <1>                0.0000
      5 O5           3.0673   2.0867   0.1466 O.3            1 <1>                0.0000
      6 C6           1.8069   2.5881   0.1553 C.ar           1 <1>                0.0000
      7 C7           1.6031   3.9595   0.1580 C.ar           1 <1>                0.0000
      8 C8           0.3184   4.4688   0.1669 C.ar           1 <1>                0.0000
      9 Cl9          0.0709   6.1870   0.1697 Cl             1 <1>                0.0000
     10 C10         -0.7744   3.6145   0.1732 C.ar           1 <1>                0.0000
     11 C11         -0.5891   2.2498   0.1711 C.ar           1 <1>                0.0000
     12 C12          0.7047   1.7220   0.1558 C.ar           1 <1>                0.0000
     13 C13          0.9097   0.2615   0.1535 C.2            1 <1>                0.0000
     14 O14          2.0369  -0.1942   0.1402 O.2            1 <1>                0.0000
     15 N15         -0.1525  -0.5680   0.1661 N.am           1 <1>                0.0000
     16 C16          0.0511  -2.0188   0.1638 C.3            1 <1>                0.0000
     17 C17         -1.2861  -2.7137   0.1797 C.ar           1 <1>                0.0000
     18 C18         -1.8879  -3.0273   1.3843 C.ar           1 <1>                0.0000
     19 C19         -3.1142  -3.6646   1.3989 C.ar           1 <1>                0.0000
     20 C20         -3.7393  -3.9881   0.2089 C.ar           1 <1>                0.0000
     21 C21         -3.1382  -3.6738  -0.9953 C.ar           1 <1>                0.0000
     22 C22         -1.9134  -3.0324  -1.0099 C.ar           1 <1>                0.0000
     23 N23         -3.8072  -4.0206  -2.2693 N.pl3          1 <1>                0.0000
     24 O24         -4.8875  -4.5830  -2.2565 O.2            1 <1>                0.0000
     25 O25         -3.2774  -3.7436  -3.3305 O.2            1 <1>                0.0000
     26 H26          4.0787   3.6510   1.0403 H              1 <1>                0.0000
     27 H27          4.0703   3.6606  -0.7396 H              1 <1>                0.0000
     28 H28          2.4493   4.6306   0.1535 H              1 <1>                0.0000
     29 H29         -1.7748   4.0213   0.1802 H              1 <1>                0.0000
     30 H30         -1.4428   1.5883   0.1768 H              1 <1>                0.0000
     31 H31         -1.0517  -0.2045   0.1768 H              1 <1>                0.0000
     32 H32          0.5998  -2.3073  -0.7327 H              1 <1>                0.0000
     33 H33          0.6209  -2.3072   1.0471 H              1 <1>                0.0000
     34 H34         -1.3996  -2.7746   2.3138 H              1 <1>                0.0000
     35 H35         -3.5840  -3.9103   2.3398 H              1 <1>                0.0000
     36 H36         -4.6973  -4.4868   0.2203 H              1 <1>                0.0000
     37 H37         -1.4436  -2.7868  -1.9508 H              1 <1>                0.0000
@<TRIPOS>BOND
    1    1    2 ar    
    2    2    3 ar    
    3    2    4 1     
    4    4    5 1     
    5    4   26 1     
    6    4   27 1     
    7    5    6 1     
    8    6   12 ar    
    9    6    7 ar    
   10    7    8 ar    
   11    7   28 1     
   12    8    9 1     
   13    8   10 ar    
   14   10   11 ar    
   15   10   29 1     
   16   11   12 ar    
   17   11   30 1     
   18   12   13 1     
   19   13   14 2     
   20   13   15 am    
   21   15   16 1     
   22   15   31 1     
   23   16   17 1     
   24   16   32 1     
   25   16   33 1     
   26   17   22 ar    
   27   17   18 ar    
   28   18   19 ar    
   29   18   34 1     
   30   19   20 ar    
   31   19   35 1     
   32   20   21 ar    
   33   20   36 1     
   34   21   22 ar    
   35   21   23 1     
   36   22   37 1     
   37   23   24 2     
   38   23   25 2     
@<TRIPOS>SUBSTRUCTURE
      1 ****           1
@<TRIPOS>SET
DONOR_HYDROGENS      STATIC     ATOMS    <user>   **** ""
1 31
ATOM$RED        STATIC     ATOMS    COLORGROUP SYSTEM
1 31
