#       Name:                3B8
#       Creating user name   gbret
#       Creation time:       Thu Sep  8 22:36:00 2016


#       File generated by GOLD software.
#

@<TRIPOS>MOLECULE
3B8
    28    30     1
SMALL
NO_CHARGES


@<TRIPOS>ATOM
      1 N1           3.8061   2.6023  -0.1395 N.am           1 <1>                0.0000
      2 C2           3.8254   1.2549  -0.1128 C.2            1 <1>                0.0000
      3 O3           4.8873   0.6621  -0.1038 O.2            1 <1>                0.0000
      4 C4           2.5601   0.5002  -0.0947 C.ar           1 <1>                0.0000
      5 C5           1.3377   1.1648   0.0196 C.ar           1 <1>                0.0000
      6 C6           0.1733   0.3979   0.0308 C.ar           1 <1>                0.0000
      7 C7           0.2494  -1.0047  -0.0714 C.ar           1 <1>                0.0000
      8 N8           1.4334  -1.5946  -0.1787 N.ar           1 <1>                0.0000
      9 C9           2.5615  -0.9058  -0.1983 C.ar           1 <1>                0.0000
     10 N10          3.7610  -1.5748  -0.3121 N.pl3          1 <1>                0.0000
     11 O11         -0.8677  -1.7567  -0.0619 O.3            1 <1>                0.0000
     12 C12         -2.1122  -1.2476   0.0437 C.ar           1 <1>                0.0000
     13 C13         -3.2116  -2.1004   0.0457 C.ar           1 <1>                0.0000
     14 C14         -4.4862  -1.5873   0.1532 C.ar           1 <1>                0.0000
     15 C15         -4.6925  -0.2182   0.2606 C.ar           1 <1>                0.0000
     16 F16         -5.9483   0.2689   0.3651 F              1 <1>                0.0000
     17 C17         -3.6161   0.6454   0.2611 C.ar           1 <1>                0.0000
     18 C18         -2.3229   0.1348   0.1528 C.ar           1 <1>                0.0000
     19 C19         -1.1508   1.0352   0.1493 C.2            1 <1>                0.0000
     20 O20         -1.2727   2.2430   0.2395 O.2            1 <1>                0.0000
     21 H21          4.6391   3.0991  -0.1553 H              1 <1>                0.0000
     22 H22          2.9591   3.0751  -0.1468 H              1 <1>                0.0000
     23 H23          1.2952   2.2412   0.0973 H              1 <1>                0.0000
     24 H24          4.5944  -1.0784  -0.3204 H              1 <1>                0.0000
     25 H25          3.7720  -2.5421  -0.3838 H              1 <1>                0.0000
     26 H26         -3.0658  -3.1673  -0.0375 H              1 <1>                0.0000
     27 H27         -5.3336  -2.2569   0.1535 H              1 <1>                0.0000
     28 H28         -3.7743   1.7105   0.3442 H              1 <1>                0.0000
@<TRIPOS>BOND
    1    1    2 am    
    2    1   21 1     
    3    1   22 1     
    4    2    3 2     
    5    2    4 1     
    6    4    9 ar    
    7    4    5 ar    
    8    5    6 ar    
    9    5   23 1     
   10    6   19 1     
   11    6    7 ar    
   12    7    8 ar    
   13    7   11 1     
   14    8    9 ar    
   15    9   10 1     
   16   10   24 1     
   17   10   25 1     
   18   11   12 1     
   19   12   18 ar    
   20   12   13 ar    
   21   13   14 ar    
   22   13   26 1     
   23   14   15 ar    
   24   14   27 1     
   25   15   16 1     
   26   15   17 ar    
   27   17   18 ar    
   28   17   28 1     
   29   18   19 1     
   30   19   20 2     
@<TRIPOS>SUBSTRUCTURE
      1 ****           1
@<TRIPOS>SET
DONOR_HYDROGENS      STATIC     ATOMS    <user>   **** ""
4 21 22 24 25
ATOM$RED        STATIC     ATOMS    COLORGROUP SYSTEM
4 21 22 24 25
