#       Name:                3CP
#       Creating user name   gbret
#       Creation time:       Thu Sep  8 22:39:23 2016


#       File generated by GOLD software.
#

@<TRIPOS>MOLECULE
3CP
    91    93     1
SMALL
NO_CHARGES


@<TRIPOS>ATOM
      1 C1           2.1361  -1.9808  -1.2941 C.3            1 <1>                0.0000
      2 C2           2.0879  -3.4889  -1.0404 C.3            1 <1>                0.0000
      3 C3           2.9225  -3.8248   0.1971 C.3            1 <1>                0.0000
      4 C4           0.6384  -3.9213  -0.8108 C.3            1 <1>                0.0000
      5 O5           0.1091  -3.2305   0.3227 O.3            1 <1>                0.0000
      6 P6          -1.3957  -3.4422   0.8545 P.3            1 <1>                0.0000
      7 O7          -2.3944  -2.9430  -0.2134 O.co2          1 <1>                0.0000
      8 O8          -1.6396  -4.9435   1.1259 O.co2          1 <1>                0.0000
      9 O9          -1.6057  -2.6097   2.2164 O.3            1 <1>                0.0000
     10 P10         -2.6618  -2.6962   3.4286 P.3            1 <1>                0.0000
     11 O11         -4.0205  -2.1212   2.9699 O.co2          1 <1>                0.0000
     12 O12         -2.8427  -4.1716   3.8497 O.co2          1 <1>                0.0000
     13 O13         -2.1134  -1.8443   4.6799 O.3            1 <1>                0.0000
     14 C14         -2.7740  -1.8088   5.9466 C.3            1 <1>                0.0000
     15 C15         -1.9909  -0.9094   6.9051 C.3            1 <1>                0.0000
     16 O16         -2.0975   0.4723   6.4982 O.3            1 <1>                0.0000
     17 C17         -1.7792   1.2420   7.6781 C.3            1 <1>                0.0000
     18 C18         -2.4739   0.4934   8.8371 C.3            1 <1>                0.0000
     19 O19         -3.7592   1.0598   9.0999 O.3            1 <1>                0.0000
     20 C20         -2.6164  -0.9545   8.3169 C.3            1 <1>                0.0000
     21 O21         -3.9941  -1.3265   8.2425 O.3            1 <1>                0.0000
     22 P22         -4.6069  -2.5844   9.0388 P.3            1 <1>                0.0000
     23 O23         -4.5129  -2.3226  10.5806 O.co2          1 <1>                0.0000
     24 O24         -6.1075  -2.7788   8.6327 O.co2          1 <1>                0.0000
     25 O25         -3.7968  -3.8759   8.6780 O.co2          1 <1>                0.0000
     26 N26         -0.3298   1.2761   7.8891 N.pl3          1 <1>                0.0000
     27 C27          0.5853   0.4277   7.3404 C.2            1 <1>                0.0000
     28 N28          1.7820   0.7451   7.7413 N.2            1 <1>                0.0000
     29 C29          1.7111   1.8141   8.5704 C.ar           1 <1>                0.0000
     30 C30          2.6521   2.5738   9.2864 C.ar           1 <1>                0.0000
     31 N31          4.0014   2.2732   9.2217 N.pl3          1 <1>                0.0000
     32 N32          2.2162   3.5876  10.0265 N.ar           1 <1>                0.0000
     33 C33          0.9304   3.8821  10.0938 C.ar           1 <1>                0.0000
     34 N34          0.0141   3.1990   9.4410 N.ar           1 <1>                0.0000
     35 C35          0.3560   2.1713   8.6704 C.ar           1 <1>                0.0000
     36 C36          2.6546  -4.2285  -2.2540 C.3            1 <1>                0.0000
     37 O37          2.5289  -5.6379  -2.0542 O.3            1 <1>                0.0000
     38 C38          1.8909  -3.8262  -3.4892 C.2            1 <1>                0.0000
     39 O39          1.1167  -4.6050  -4.0040 O.2            1 <1>                0.0000
     40 N40          2.0681  -2.6009  -4.0219 N.am           1 <1>                0.0000
     41 C41          1.2501  -2.1710  -5.1586 C.3            1 <1>                0.0000
     42 C42          1.6495  -0.7514  -5.5664 C.3            1 <1>                0.0000
     43 C43          0.8080  -0.3092  -6.7357 C.2            1 <1>                0.0000
     44 O44         -0.0288  -1.0559  -7.1975 O.2            1 <1>                0.0000
     45 N45          0.9852   0.9161  -7.2684 N.am           1 <1>                0.0000
     46 C46          0.1672   1.3460  -8.4051 C.3            1 <1>                0.0000
     47 C47          0.5666   2.7656  -8.8129 C.3            1 <1>                0.0000
     48 S48         -0.4464   3.2979 -10.2205 S.3            1 <1>                0.0000
     49 C49          0.1641   4.9737 -10.5519 C.3            1 <1>                0.0000
     50 C50         -0.6031   5.5716 -11.7329 C.3            1 <1>                0.0000
     51 C51         -0.0882   6.9850 -12.0125 C.3            1 <1>                0.0000
     52 C52         -0.8438   7.5740 -13.1758 C.2            1 <1>                0.0000
     53 O53         -1.7135   6.9235 -13.7299 O.co2          1 <1>                0.0000
     54 O54         -0.5854   8.7009 -13.5628 O.co2          1 <1>                0.0000
     55 H55          3.1729  -1.6644  -1.4078 H              1 <1>                0.0000
     56 H56          1.5832  -1.7476  -2.2041 H              1 <1>                0.0000
     57 H57          1.6864  -1.4560  -0.4512 H              1 <1>                0.0000
     58 H58          2.4685  -3.3680   1.0765 H              1 <1>                0.0000
     59 H59          2.9596  -4.9063   0.3277 H              1 <1>                0.0000
     60 H60          3.9340  -3.4394   0.0687 H              1 <1>                0.0000
     61 H61          0.0438  -3.6820  -1.6924 H              1 <1>                0.0000
     62 H62          0.6041  -4.9957  -0.6300 H              1 <1>                0.0000
     63 H63         -3.7820  -1.4140   5.8197 H              1 <1>                0.0000
     64 H64         -2.8277  -2.8172   6.3568 H              1 <1>                0.0000
     65 H65         -0.9456  -1.2158   6.9432 H              1 <1>                0.0000
     66 H66         -2.1744   2.2539   7.5891 H              1 <1>                0.0000
     67 H67         -1.8552   0.5199   9.7341 H              1 <1>                0.0000
     68 H68         -3.7321   1.9873   9.3720 H              1 <1>                0.0000
     69 H69         -2.0671  -1.6458   8.9560 H              1 <1>                0.0000
     70 H70          0.3516  -0.3879   6.6720 H              1 <1>                0.0000
     71 H71          4.3073   1.5308   8.6776 H              1 <1>                0.0000
     72 H72          4.6412   2.8049   9.7205 H              1 <1>                0.0000
     73 H73          0.6192   4.7143  10.7078 H              1 <1>                0.0000
     74 H74          3.7066  -3.9714  -2.3774 H              1 <1>                0.0000
     75 H75          1.6175  -5.9387  -1.9367 H              1 <1>                0.0000
     76 H76          2.7374  -2.0037  -3.6526 H              1 <1>                0.0000
     77 H77          1.4093  -2.8484  -5.9976 H              1 <1>                0.0000
     78 H78          0.1978  -2.1850  -4.8749 H              1 <1>                0.0000
     79 H79          1.4903  -0.0740  -4.7274 H              1 <1>                0.0000
     80 H80          2.7018  -0.7374  -5.8501 H              1 <1>                0.0000
     81 H81          1.6545   1.5133  -6.8991 H              1 <1>                0.0000
     82 H82          0.3264   0.6686  -9.2441 H              1 <1>                0.0000
     83 H83         -0.8851   1.3320  -8.1214 H              1 <1>                0.0000
     84 H84          0.4074   3.4430  -7.9739 H              1 <1>                0.0000
     85 H85          1.6189   2.7796  -9.0967 H              1 <1>                0.0000
     86 H86          0.0150   5.5958  -9.6694 H              1 <1>                0.0000
     87 H87          1.2265   4.9325 -10.7921 H              1 <1>                0.0000
     88 H88         -0.4540   4.9495 -12.6154 H              1 <1>                0.0000
     89 H89         -1.6655   5.6128 -11.4927 H              1 <1>                0.0000
     90 H90         -0.2373   7.6072 -11.1300 H              1 <1>                0.0000
     91 H91          0.9742   6.9438 -12.2527 H              1 <1>                0.0000
@<TRIPOS>BOND
    1    1    2 1     
    2    1   55 1     
    3    1   56 1     
    4    1   57 1     
    5    2    3 1     
    6    2    4 1     
    7    2   36 1     
    8    3   58 1     
    9    3   59 1     
   10    3   60 1     
   11    4    5 1     
   12    4   61 1     
   13    4   62 1     
   14    5    6 1     
   15    6    7 ar    
   16    6    8 ar    
   17    6    9 1     
   18    9   10 1     
   19   10   11 ar    
   20   10   12 ar    
   21   10   13 1     
   22   13   14 1     
   23   14   15 1     
   24   14   63 1     
   25   14   64 1     
   26   15   20 1     
   27   15   16 1     
   28   15   65 1     
   29   16   17 1     
   30   17   18 1     
   31   17   26 1     
   32   17   66 1     
   33   18   19 1     
   34   18   20 1     
   35   18   67 1     
   36   19   68 1     
   37   20   21 1     
   38   20   69 1     
   39   21   22 1     
   40   22   23 ar    
   41   22   24 ar    
   42   22   25 ar    
   43   26   35 1     
   44   26   27 1     
   45   27   28 2     
   46   27   70 1     
   47   28   29 1     
   48   29   35 ar    
   49   29   30 ar    
   50   30   31 1     
   51   30   32 ar    
   52   31   71 1     
   53   31   72 1     
   54   32   33 ar    
   55   33   34 ar    
   56   33   73 1     
   57   34   35 ar    
   58   36   37 1     
   59   36   38 1     
   60   36   74 1     
   61   37   75 1     
   62   38   39 2     
   63   38   40 am    
   64   40   41 1     
   65   40   76 1     
   66   41   42 1     
   67   41   77 1     
   68   41   78 1     
   69   42   43 1     
   70   42   79 1     
   71   42   80 1     
   72   43   44 2     
   73   43   45 am    
   74   45   46 1     
   75   45   81 1     
   76   46   47 1     
   77   46   82 1     
   78   46   83 1     
   79   47   48 1     
   80   47   84 1     
   81   47   85 1     
   82   48   49 1     
   83   49   50 1     
   84   49   86 1     
   85   49   87 1     
   86   50   51 1     
   87   50   88 1     
   88   50   89 1     
   89   51   52 1     
   90   51   90 1     
   91   51   91 1     
   92   52   53 ar    
   93   52   54 ar    
@<TRIPOS>SUBSTRUCTURE
      1 ****           1
@<TRIPOS>SET
DONOR_HYDROGENS      STATIC     ATOMS    <user>   **** ""
6 68 71 72 75 76 81
ATOM$RED        STATIC     ATOMS    COLORGROUP SYSTEM
6 68 71 72 75 76 81
