#       Name:                3F3
#       Creating user name   gbret
#       Creation time:       Thu Sep  8 22:45:00 2016


#       File generated by GOLD software.
#

@<TRIPOS>MOLECULE
3F3
    54    58     1
SMALL
NO_CHARGES


@<TRIPOS>ATOM
      1 C1           2.2926   5.3154  -4.0947 C.3            1 <1>                0.0000
      2 O2           2.3120   3.8865  -4.1026 O.3            1 <1>                0.0000
      3 C3           2.9357   3.2722  -3.0631 C.ar           1 <1>                0.0000
      4 C4           3.5122   4.0291  -2.0532 C.ar           1 <1>                0.0000
      5 C5           4.1452   3.4024  -0.9976 C.ar           1 <1>                0.0000
      6 C6           4.2046   2.0217  -0.9467 C.ar           1 <1>                0.0000
      7 C7           3.6313   1.2654  -1.9519 C.ar           1 <1>                0.0000
      8 C8           3.6984  -0.2390  -1.8935 C.3            1 <1>                0.0000
      9 C9           2.4954  -0.7672  -1.1552 C.2            1 <1>                0.0000
     10 N10          1.3530  -1.1007  -1.6860 N.2            1 <1>                0.0000
     11 N11          0.5527  -1.5106  -0.7658 N.2            1 <1>                0.0000
     12 C12          1.1644  -1.4520   0.3981 C.2            1 <1>                0.0000
     13 O13          2.4097  -0.9847   0.1701 O.3            1 <1>                0.0000
     14 C14          0.5995  -1.8295   1.7001 C.2            1 <1>                0.0000
     15 S15          1.4616  -1.7220   3.2224 S.3            1 <1>                0.0000
     16 C16          0.0853  -2.3379   4.1279 C.ar           1 <1>                0.0000
     17 C17         -0.0648  -2.5741   5.4987 C.ar           1 <1>                0.0000
     18 C18         -1.2506  -3.0658   5.9903 C.ar           1 <1>                0.0000
     19 C19         -2.3076  -3.3320   5.1294 C.ar           1 <1>                0.0000
     20 C20         -2.1842  -3.1106   3.7928 C.ar           1 <1>                0.0000
     21 C21         -0.9776  -2.6047   3.2587 C.ar           1 <1>                0.0000
     22 C22         -0.6432  -2.2952   1.8793 C.2            1 <1>                0.0000
     23 O23         -1.5191  -2.4677   0.8537 O.3            1 <1>                0.0000
     24 C24         -2.3626  -1.3612   0.5278 C.3            1 <1>                0.0000
     25 C25         -1.6762  -0.4868  -0.5254 C.3            1 <1>                0.0000
     26 C26         -2.6170   0.6509  -0.9278 C.3            1 <1>                0.0000
     27 N27         -3.8553   0.0929  -1.4844 N.4            1 <1>                0.0000
     28 H28         -4.4507   0.8448  -1.7977 H              1 <1>                0.0000
     29 H29         -3.6320  -0.5056  -2.2654 H              1 <1>                0.0000
     30 C30         -4.5553  -0.6882  -0.4577 C.3            1 <1>                0.0000
     31 C31         -3.6890  -1.8774  -0.0372 C.3            1 <1>                0.0000
     32 C32          2.9921   1.8874  -3.0071 C.ar           1 <1>                0.0000
     33 H33          3.3152   5.6927  -4.1025 H              1 <1>                0.0000
     34 H34          1.7654   5.6765  -4.9778 H              1 <1>                0.0000
     35 H35          1.7824   5.6669  -3.1979 H              1 <1>                0.0000
     36 H36          3.4664   5.1074  -2.0927 H              1 <1>                0.0000
     37 H37          4.5944   3.9911  -0.2114 H              1 <1>                0.0000
     38 H38          4.6999   1.5336  -0.1204 H              1 <1>                0.0000
     39 H39          3.7088  -0.6418  -2.9063 H              1 <1>                0.0000
     40 H40          4.6065  -0.5423  -1.3725 H              1 <1>                0.0000
     41 H41          0.7538  -2.3696   6.1729 H              1 <1>                0.0000
     42 H42         -1.3606  -3.2461   7.0495 H              1 <1>                0.0000
     43 H43         -3.2354  -3.7186   5.5246 H              1 <1>                0.0000
     44 H44         -3.0143  -3.3228   3.1352 H              1 <1>                0.0000
     45 H45         -2.5532  -0.7717   1.4246 H              1 <1>                0.0000
     46 H46         -0.7581  -0.0705  -0.1107 H              1 <1>                0.0000
     47 H47         -1.4395  -1.0905  -1.4016 H              1 <1>                0.0000
     48 H48         -2.8528   1.2541  -0.0510 H              1 <1>                0.0000
     49 H49         -2.1313   1.2755  -1.6775 H              1 <1>                0.0000
     50 H50         -4.7498  -0.0565   0.4091 H              1 <1>                0.0000
     51 H51         -5.5006  -1.0522  -0.8602 H              1 <1>                0.0000
     52 H52         -3.4942  -2.5100  -0.9033 H              1 <1>                0.0000
     53 H53         -4.2098  -2.4551   0.7265 H              1 <1>                0.0000
     54 H54          2.5444   1.2961  -3.7921 H              1 <1>                0.0000
@<TRIPOS>BOND
    1    1    2 1     
    2    1   33 1     
    3    1   34 1     
    4    1   35 1     
    5    2    3 1     
    6    3   32 ar    
    7    3    4 ar    
    8    4    5 ar    
    9    4   36 1     
   10    5    6 ar    
   11    5   37 1     
   12    6    7 ar    
   13    6   38 1     
   14    7    8 1     
   15    7   32 ar    
   16    8    9 1     
   17    8   39 1     
   18    8   40 1     
   19    9   13 1     
   20    9   10 2     
   21   10   11 1     
   22   11   12 2     
   23   12   13 1     
   24   12   14 1     
   25   14   22 2     
   26   14   15 1     
   27   15   16 1     
   28   16   21 ar    
   29   16   17 ar    
   30   17   18 ar    
   31   17   41 1     
   32   18   19 ar    
   33   18   42 1     
   34   19   20 ar    
   35   19   43 1     
   36   20   21 ar    
   37   20   44 1     
   38   21   22 1     
   39   22   23 1     
   40   23   24 1     
   41   24   31 1     
   42   24   25 1     
   43   24   45 1     
   44   25   26 1     
   45   25   46 1     
   46   25   47 1     
   47   26   27 1     
   48   26   48 1     
   49   26   49 1     
   50   27   28 1     
   51   27   29 1     
   52   27   30 1     
   53   30   31 1     
   54   30   50 1     
   55   30   51 1     
   56   31   52 1     
   57   31   53 1     
   58   32   54 1     
@<TRIPOS>SUBSTRUCTURE
      1 ****           1
@<TRIPOS>SET
DONOR_HYDROGENS      STATIC     ATOMS    <user>   **** ""
2 28 29
ATOM$RED        STATIC     ATOMS    COLORGROUP SYSTEM
2 28 29
