#       Name:                3GK
#       Creating user name   gbret
#       Creation time:       Thu Sep  8 22:48:34 2016


#       File generated by GOLD software.
#

@<TRIPOS>MOLECULE
3GK
    36    39     1
SMALL
NO_CHARGES


@<TRIPOS>ATOM
      1 F1           1.5511  -5.3619  -2.7868 F              1 <1>                0.0000
      2 C2           1.5265  -3.9631  -2.7821 C.3            1 <1>                0.0000
      3 F3           2.8370  -3.4736  -2.7853 F              1 <1>                0.0000
      4 F4           0.8546  -3.5047  -3.9203 F              1 <1>                0.0000
      5 C5           0.8119  -3.4774  -1.5473 C.ar           1 <1>                0.0000
      6 C6           0.6614  -2.1197  -1.3331 C.ar           1 <1>                0.0000
      7 C7           0.0035  -1.6554  -0.1969 C.ar           1 <1>                0.0000
      8 C8          -0.1565  -0.2080   0.0297 C.2            1 <1>                0.0000
      9 O9          -0.7320   0.1919   1.0238 O.2            1 <1>                0.0000
     10 N10          0.3348   0.6725  -0.8645 N.am           1 <1>                0.0000
     11 C11          0.0993   2.0413  -0.7002 C.ar           1 <1>                0.0000
     12 C12         -0.0935   2.8521  -1.8124 C.ar           1 <1>                0.0000
     13 C13         -0.3263   4.2046  -1.6535 C.ar           1 <1>                0.0000
     14 C14         -0.3688   4.7582  -0.3891 C.ar           1 <1>                0.0000
     15 C15         -0.1767   3.9530   0.7314 C.ar           1 <1>                0.0000
     16 C16          0.0523   2.5891   0.5730 C.ar           1 <1>                0.0000
     17 C17         -0.2222   4.5470   2.0915 C.2            1 <1>                0.0000
     18 N18         -0.0520   3.9064   3.2428 N.2            1 <1>                0.0000
     19 N19         -0.1663   4.7731   4.1905 N.2            1 <1>                0.0000
     20 N20         -0.4012   5.9302   3.6773 N.pl3          1 <1>                0.0000
     21 N21         -0.4352   5.8232   2.3929 N.2            1 <1>                0.0000
     22 C22         -0.5090  -2.5824   0.7353 C.ar           1 <1>                0.0000
     23 N23         -1.1759  -2.4566   1.8996 N.2            1 <1>                0.0000
     24 C24         -1.4317  -3.6359   2.3910 C.2            1 <1>                0.0000
     25 N25         -0.9418  -4.5992   1.5676 N.pl3          1 <1>                0.0000
     26 H26         -0.9998  -5.5578   1.7042 H              1 <1>                0.0000
     27 C27         -0.3457  -3.9573   0.4993 C.ar           1 <1>                0.0000
     28 C28          0.3090  -4.3930  -0.6438 C.ar           1 <1>                0.0000
     29 H29          1.0564  -1.4156  -2.0505 H              1 <1>                0.0000
     30 H30          0.8518   0.3569  -1.6222 H              1 <1>                0.0000
     31 H31         -0.0608   2.4238  -2.8033 H              1 <1>                0.0000
     32 H32         -0.4752   4.8309  -2.5208 H              1 <1>                0.0000
     33 H33         -0.5507   5.8160  -0.2688 H              1 <1>                0.0000
     34 H34          0.2017   1.9610   1.4387 H              1 <1>                0.0000
     35 H35         -1.9558  -3.8205   3.3171 H              1 <1>                0.0000
     36 H36          0.4275  -5.4508  -0.8265 H              1 <1>                0.0000
@<TRIPOS>BOND
    1    1    2 1     
    2    2    3 1     
    3    2    4 1     
    4    2    5 1     
    5    5   28 ar    
    6    5    6 ar    
    7    6    7 ar    
    8    6   29 1     
    9    7    8 1     
   10    7   22 ar    
   11    8    9 2     
   12    8   10 am    
   13   10   11 1     
   14   10   30 1     
   15   11   16 ar    
   16   11   12 ar    
   17   12   13 ar    
   18   12   31 1     
   19   13   14 ar    
   20   13   32 1     
   21   14   15 ar    
   22   14   33 1     
   23   15   16 ar    
   24   15   17 1     
   25   16   34 1     
   26   17   21 2     
   27   17   18 1     
   28   18   19 2     
   29   19   20 1     
   30   20   21 1     
   31   22   27 ar    
   32   22   23 1     
   33   23   24 2     
   34   24   25 1     
   35   24   35 1     
   36   25   26 1     
   37   25   27 1     
   38   27   28 ar    
   39   28   36 1     
@<TRIPOS>SUBSTRUCTURE
      1 ****           1
@<TRIPOS>SET
DONOR_HYDROGENS      STATIC     ATOMS    <user>   **** ""
2 30 26
ATOM$RED        STATIC     ATOMS    COLORGROUP SYSTEM
2 30 26
