#       Name:                3JD
#       Creating user name   gbret
#       Creation time:       Thu Sep  8 22:53:42 2016


#       File generated by GOLD software.
#

@<TRIPOS>MOLECULE
3JD
    45    48     1
SMALL
NO_CHARGES


@<TRIPOS>ATOM
      1 N1          -0.5920   7.2375   0.0052 N.am           1 <1>                0.0000
      2 C2          -0.5737   5.8898  -0.0022 C.2            1 <1>                0.0000
      3 O3           0.4879   5.2960  -0.0155 O.2            1 <1>                0.0000
      4 C4          -1.8380   5.1368   0.0058 C.ar           1 <1>                0.0000
      5 C5          -3.0563   5.7981   0.0152 C.ar           1 <1>                0.0000
      6 C6          -4.2576   5.1007   0.0224 C.ar           1 <1>                0.0000
      7 C7          -4.3158   3.7435   0.0211 C.ar           1 <1>                0.0000
      8 C8          -3.1349   2.9762   0.0124 C.ar           1 <1>                0.0000
      9 C9          -2.8503   1.6215   0.0092 C.2            1 <1>                0.0000
     10 N10         -1.5158   1.4825  -0.0001 N.pl3          1 <1>                0.0000
     11 N11         -0.9050   2.7420  -0.0032 N.2            1 <1>                0.0000
     12 C12         -1.8367   3.6704  -0.0020 C.ar           1 <1>                0.0000
     13 C13         -0.8348   0.2585  -0.0051 C.ar           1 <1>                0.0000
     14 C14         -1.5467  -0.9339  -0.0063 C.ar           1 <1>                0.0000
     15 C15         -0.8723  -2.1391  -0.0117 C.ar           1 <1>                0.0000
     16 C16          0.5104  -2.1593  -0.0156 C.ar           1 <1>                0.0000
     17 C17          1.2222  -0.9737  -0.0139 C.ar           1 <1>                0.0000
     18 C18          0.5537   0.2348  -0.0147 C.ar           1 <1>                0.0000
     19 C19          1.2431  -3.4762  -0.0210 C.3            1 <1>                0.0000
     20 C20          2.1232  -3.5666  -1.2710 C.3            1 <1>                0.0000
     21 C21          2.9219  -4.8725  -1.2276 C.3            1 <1>                0.0000
     22 C22          3.7417  -4.9199   0.0636 C.3            1 <1>                0.0000
     23 N23          2.8418  -4.8563   1.2215 N.4            1 <1>                0.0000
     24 H24          2.1762  -5.6129   1.1707 H              1 <1>                0.0000
     25 H25          3.3810  -4.9404   2.0702 H              1 <1>                0.0000
     26 C26          2.1251  -3.5754   1.2255 C.3            1 <1>                0.0000
     27 H27          0.2414   7.7338  -0.0041 H              1 <1>                0.0000
     28 H28         -1.4384   7.7110   0.0158 H              1 <1>                0.0000
     29 H29         -3.0718   6.8780   0.0173 H              1 <1>                0.0000
     30 H30         -5.1817   5.6595   0.0295 H              1 <1>                0.0000
     31 H31         -5.2758   3.2487   0.0273 H              1 <1>                0.0000
     32 H32         -3.5736   0.8195   0.0138 H              1 <1>                0.0000
     33 H33         -2.6266  -0.9187  -0.0026 H              1 <1>                0.0000
     34 H34         -1.4254  -3.0667  -0.0126 H              1 <1>                0.0000
     35 H35          2.3020  -0.9929  -0.0162 H              1 <1>                0.0000
     36 H36          1.1102   1.1604  -0.0135 H              1 <1>                0.0000
     37 H37          0.5222  -4.2938  -0.0227 H              1 <1>                0.0000
     38 H38          1.4944  -3.5533  -2.1612 H              1 <1>                0.0000
     39 H39          2.8095  -2.7202  -1.2954 H              1 <1>                0.0000
     40 H40          2.2364  -5.7195  -1.2548 H              1 <1>                0.0000
     41 H41          3.5920  -4.9180  -2.0861 H              1 <1>                0.0000
     42 H42          4.3118  -5.8483   0.0976 H              1 <1>                0.0000
     43 H43          4.4270  -4.0727   0.0896 H              1 <1>                0.0000
     44 H44          2.8449  -2.7568   1.2267 H              1 <1>                0.0000
     45 H45          1.5016  -3.5112   2.1172 H              1 <1>                0.0000
@<TRIPOS>BOND
    1    1    2 am    
    2    1   27 1     
    3    1   28 1     
    4    2    3 2     
    5    2    4 1     
    6    4   12 ar    
    7    4    5 ar    
    8    5    6 ar    
    9    5   29 1     
   10    6    7 ar    
   11    6   30 1     
   12    7    8 ar    
   13    7   31 1     
   14    8   12 ar    
   15    8    9 2     
   16    9   10 1     
   17    9   32 1     
   18   10   11 1     
   19   10   13 1     
   20   11   12 2     
   21   13   18 ar    
   22   13   14 ar    
   23   14   15 ar    
   24   14   33 1     
   25   15   16 ar    
   26   15   34 1     
   27   16   17 ar    
   28   16   19 1     
   29   17   18 ar    
   30   17   35 1     
   31   18   36 1     
   32   19   26 1     
   33   19   20 1     
   34   19   37 1     
   35   20   21 1     
   36   20   38 1     
   37   20   39 1     
   38   21   22 1     
   39   21   40 1     
   40   21   41 1     
   41   22   23 1     
   42   22   42 1     
   43   22   43 1     
   44   23   24 1     
   45   23   25 1     
   46   23   26 1     
   47   26   44 1     
   48   26   45 1     
@<TRIPOS>SUBSTRUCTURE
      1 ****           1
@<TRIPOS>SET
DONOR_HYDROGENS      STATIC     ATOMS    <user>   **** ""
4 27 28 24 25
ATOM$RED        STATIC     ATOMS    COLORGROUP SYSTEM
4 27 28 24 25
