#       Name:                3JP
#       Creating user name   gbret
#       Creation time:       Thu Sep  8 22:54:31 2016


#       File generated by GOLD software.
#

@<TRIPOS>MOLECULE
3JP
    69    72     1
SMALL
NO_CHARGES


@<TRIPOS>ATOM
      1 C1          -3.2269   2.3800   1.6415 C.3            1 <1>                0.0000
      2 C2          -3.1156   0.8541   1.6278 C.3            1 <1>                0.0000
      3 C3          -2.6285   0.3912   0.2554 C.3            1 <1>                0.0000
      4 C4          -1.2215   0.9088  -0.0192 C.3            1 <1>                0.0000
      5 N5          -0.3625   0.8238   1.1584 N.am           1 <1>                0.0000
      6 C6           0.1576   2.0777   1.7380 C.3            1 <1>                0.0000
      7 C7           1.5509   2.3612   1.1730 C.3            1 <1>                0.0000
      8 O8           1.4540   2.6106  -0.2307 O.3            1 <1>                0.0000
      9 C9           2.6115   2.8817  -0.8909 C.ar           1 <1>                0.0000
     10 C10          3.8146   2.9010  -0.2011 C.ar           1 <1>                0.0000
     11 C11          4.9926   3.1764  -0.8700 C.ar           1 <1>                0.0000
     12 C12          4.9737   3.4333  -2.2312 C.ar           1 <1>                0.0000
     13 O13          6.1338   3.7038  -2.8890 O.3            1 <1>                0.0000
     14 C14          7.3340   3.7064  -2.1134 C.3            1 <1>                0.0000
     15 C15          3.7681   3.4140  -2.9253 C.ar           1 <1>                0.0000
     16 O16          3.7477   3.6656  -4.2616 O.3            1 <1>                0.0000
     17 C17          2.4745   3.6290  -4.9093 C.3            1 <1>                0.0000
     18 C18          2.5890   3.1331  -2.2543 C.ar           1 <1>                0.0000
     19 C19          0.0034  -0.3244   1.7386 C.2            1 <1>                0.0000
     20 O20          0.7278  -0.2734   2.7237 O.2            1 <1>                0.0000
     21 C21         -0.4406  -1.6664   1.2253 C.3            1 <1>                0.0000
     22 C22          0.0742  -1.8663  -0.1999 C.3            1 <1>                0.0000
     23 C23         -0.9902  -2.5148  -1.0723 C.3            1 <1>                0.0000
     24 C24         -2.2321  -1.6392  -1.1878 C.3            1 <1>                0.0000
     25 C25         -2.6798  -1.1296   0.1740 C.3            1 <1>                0.0000
     26 N26         -1.9016  -1.7521   1.2388 N.pl3          1 <1>                0.0000
     27 S27         -2.6727  -2.5621   2.4629 S.o2           1 <1>                0.0000
     28 O28         -1.7807  -2.5610   3.5691 O.2            1 <1>                0.0000
     29 O29         -3.9902  -2.0334   2.5263 O.2            1 <1>                0.0000
     30 C30         -2.8345  -4.2418   1.9560 C.ar           1 <1>                0.0000
     31 C31         -3.9536  -4.6465   1.2528 C.ar           1 <1>                0.0000
     32 C32         -4.0814  -5.9654   0.8549 C.ar           1 <1>                0.0000
     33 Cl33        -5.4870  -6.4735  -0.0282 Cl             1 <1>                0.0000
     34 C34         -3.0888  -6.8791   1.1604 C.ar           1 <1>                0.0000
     35 C35         -1.9688  -6.4734   1.8638 C.ar           1 <1>                0.0000
     36 Cl36        -0.7223  -7.6192   2.2472 Cl             1 <1>                0.0000
     37 C37         -1.8397  -5.1531   2.2567 C.ar           1 <1>                0.0000
     38 H38         -2.2799   2.8162   1.3236 H              1 <1>                0.0000
     39 H39         -4.0179   2.6928   0.9600 H              1 <1>                0.0000
     40 H40         -3.4620   2.7181   2.6507 H              1 <1>                0.0000
     41 H41         -2.4068   0.5346   2.3917 H              1 <1>                0.0000
     42 H42         -4.0927   0.4167   1.8331 H              1 <1>                0.0000
     43 H43         -3.3065   0.7997  -0.5065 H              1 <1>                0.0000
     44 H44         -0.7793   0.3611  -0.8514 H              1 <1>                0.0000
     45 H45         -1.2911   1.9640  -0.3245 H              1 <1>                0.0000
     46 H46         -0.5115   2.9000   1.4846 H              1 <1>                0.0000
     47 H47          0.2181   1.9793   2.8218 H              1 <1>                0.0000
     48 H48          1.9732   3.2352   1.6690 H              1 <1>                0.0000
     49 H49          2.1952   1.4990   1.3452 H              1 <1>                0.0000
     50 H50          3.8311   2.7010   0.8601 H              1 <1>                0.0000
     51 H51          5.9283   3.1916  -0.3309 H              1 <1>                0.0000
     52 H52          7.2587   4.4606  -1.3300 H              1 <1>                0.0000
     53 H53          7.4760   2.7251  -1.6606 H              1 <1>                0.0000
     54 H54          8.1826   3.9354  -2.7580 H              1 <1>                0.0000
     55 H55          1.8172   4.3741  -4.4610 H              1 <1>                0.0000
     56 H56          2.6000   3.8465  -5.9700 H              1 <1>                0.0000
     57 H57          2.0349   2.6386  -4.7910 H              1 <1>                0.0000
     58 H58          1.6521   3.1173  -2.7914 H              1 <1>                0.0000
     59 H59         -0.0306  -2.4579   1.8717 H              1 <1>                0.0000
     60 H60          0.3800  -0.9164  -0.6294 H              1 <1>                0.0000
     61 H61          0.9497  -2.5256  -0.1703 H              1 <1>                0.0000
     62 H62         -0.5803  -2.6834  -2.0687 H              1 <1>                0.0000
     63 H63         -1.2710  -3.4752  -0.6388 H              1 <1>                0.0000
     64 H64         -2.0150  -0.7916  -1.8371 H              1 <1>                0.0000
     65 H65         -3.0394  -2.2248  -1.6310 H              1 <1>                0.0000
     66 H66         -3.7224  -1.4321   0.3100 H              1 <1>                0.0000
     67 H67         -4.7285  -3.9331   1.0143 H              1 <1>                0.0000
     68 H68         -3.1883  -7.9088   0.8503 H              1 <1>                0.0000
     69 H69         -0.9652  -4.8362   2.8055 H              1 <1>                0.0000
@<TRIPOS>BOND
    1    1    2 1     
    2    1   38 1     
    3    1   39 1     
    4    1   40 1     
    5    2    3 1     
    6    2   41 1     
    7    2   42 1     
    8    3   25 1     
    9    3    4 1     
   10    3   43 1     
   11    4    5 1     
   12    4   44 1     
   13    4   45 1     
   14    5    6 1     
   15    5   19 am    
   16    6    7 1     
   17    6   46 1     
   18    6   47 1     
   19    7    8 1     
   20    7   48 1     
   21    7   49 1     
   22    8    9 1     
   23    9   18 ar    
   24    9   10 ar    
   25   10   11 ar    
   26   10   50 1     
   27   11   12 ar    
   28   11   51 1     
   29   12   13 1     
   30   12   15 ar    
   31   13   14 1     
   32   14   52 1     
   33   14   53 1     
   34   14   54 1     
   35   15   16 1     
   36   15   18 ar    
   37   16   17 1     
   38   17   55 1     
   39   17   56 1     
   40   17   57 1     
   41   18   58 1     
   42   19   20 2     
   43   19   21 1     
   44   21   26 1     
   45   21   22 1     
   46   21   59 1     
   47   22   23 1     
   48   22   60 1     
   49   22   61 1     
   50   23   24 1     
   51   23   62 1     
   52   23   63 1     
   53   24   25 1     
   54   24   64 1     
   55   24   65 1     
   56   25   26 1     
   57   25   66 1     
   58   26   27 1     
   59   27   28 2     
   60   27   29 2     
   61   27   30 1     
   62   30   37 ar    
   63   30   31 ar    
   64   31   32 ar    
   65   31   67 1     
   66   32   33 1     
   67   32   34 ar    
   68   34   35 ar    
   69   34   68 1     
   70   35   36 1     
   71   35   37 ar    
   72   37   69 1     
@<TRIPOS>SUBSTRUCTURE
      1 ****           1
