#       Name:                3K5
#       Creating user name   gbret
#       Creation time:       Thu Sep  8 22:55:41 2016


#       File generated by GOLD software.
#

@<TRIPOS>MOLECULE
3K5
   109   115     1
SMALL
NO_CHARGES


@<TRIPOS>ATOM
      1 C1          -5.5451   4.8720   1.1978 C.3            1 <1>                0.0000
      2 C2          -5.5243   3.3421   1.1894 C.3            1 <1>                0.0000
      3 C3          -4.8024   2.8474  -0.0667 C.3            1 <1>                0.0000
      4 O4          -3.4482   3.3059  -0.0474 O.3            1 <1>                0.0000
      5 C5          -2.6931   2.8502   1.0704 C.3            1 <1>                0.0000
      6 C6          -3.3306   3.3178   2.3763 C.3            1 <1>                0.0000
      7 C7          -4.7836   2.8337   2.4301 C.3            1 <1>                0.0000
      8 O8          -5.4145   3.3439   3.6064 O.3            1 <1>                0.0000
      9 C9          -6.3952   2.5936   4.1499 C.2            1 <1>                0.0000
     10 O10         -6.7055   1.5349   3.6380 O.2            1 <1>                0.0000
     11 C11         -7.0852   3.0534   5.3545 C.2            1 <1>                0.0000
     12 C12         -8.0660   2.3031   5.8980 C.2            1 <1>                0.0000
     13 C13         -8.7604   2.7658   7.1103 C.ar           1 <1>                0.0000
     14 C14         -8.4104   3.9854   7.6985 C.ar           1 <1>                0.0000
     15 C15         -9.0660   4.4122   8.8340 C.ar           1 <1>                0.0000
     16 C16        -10.0677   3.6369   9.3918 C.ar           1 <1>                0.0000
     17 C17        -10.4198   2.4288   8.8156 C.ar           1 <1>                0.0000
     18 C18         -9.7775   1.9909   7.6767 C.ar           1 <1>                0.0000
     19 O19         -2.6307   1.4024   1.0563 O.3            1 <1>                0.0000
     20 C20         -1.4296   1.0867   0.3588 C.3            1 <1>                0.0000
     21 C21         -0.8534  -0.3015   0.5422 C.3            1 <1>                0.0000
     22 C22          0.4256  -0.3828  -0.3077 C.3            1 <1>                0.0000
     23 C23          1.4261   0.6995   0.0863 C.3            1 <1>                0.0000
     24 C24          0.7952   2.0999   0.0237 C.3            1 <1>                0.0000
     25 C25         -0.4048   2.0959   0.9531 C.3            1 <1>                0.0000
     26 C26         -1.2464   3.3651   0.9776 C.3            1 <1>                0.0000
     27 C27         -0.8887   4.6071   0.1773 C.3            1 <1>                0.0000
     28 O28         -0.8297   4.5642   1.6068 O.3            1 <1>                0.0000
     29 C29          1.0610  -1.7355  -0.1138 C.2            1 <1>                0.0000
     30 O30          0.5474  -2.5443   0.6224 O.2            1 <1>                0.0000
     31 O31          2.1974  -2.0418  -0.7591 O.3            1 <1>                0.0000
     32 C32          2.7530  -3.3627  -0.5247 C.3            1 <1>                0.0000
     33 O33          1.9144  -4.3472  -1.1327 O.3            1 <1>                0.0000
     34 C34          2.3583  -5.6917  -0.9395 C.3            1 <1>                0.0000
     35 C35          1.3738  -6.6549  -1.6057 C.3            1 <1>                0.0000
     36 C36          3.7447  -5.8648  -1.5654 C.3            1 <1>                0.0000
     37 O37          3.6650  -5.6346  -2.9735 O.3            1 <1>                0.0000
     38 C38          4.7102  -4.8561  -0.9356 C.3            1 <1>                0.0000
     39 O39          6.0092  -4.9622  -1.5756 O.3            1 <1>                0.0000
     40 C40          6.8846  -5.8262  -1.0381 C.2            1 <1>                0.0000
     41 C41          8.2527  -5.9903  -1.6484 C.3            1 <1>                0.0000
     42 O42          6.5757  -6.4724  -0.0650 O.2            1 <1>                0.0000
     43 C43          4.1552  -3.4422  -1.1340 C.3            1 <1>                0.0000
     44 O44          4.0864  -3.1479  -2.5307 O.3            1 <1>                0.0000
     45 C45          4.2494  -1.7626  -2.8414 C.3            1 <1>                0.0000
     46 O46          5.6026  -1.3750  -2.5952 O.3            1 <1>                0.0000
     47 C47          5.8698   0.0054  -2.8505 C.3            1 <1>                0.0000
     48 C48          7.3339   0.3101  -2.5270 C.3            1 <1>                0.0000
     49 C49          5.5984   0.3119  -4.3257 C.3            1 <1>                0.0000
     50 O50          6.4822  -0.4575  -5.1437 O.3            1 <1>                0.0000
     51 C51          4.1478  -0.0522  -4.6563 C.3            1 <1>                0.0000
     52 O52          3.9027   0.1651  -6.0709 O.3            1 <1>                0.0000
     53 C53          2.6536   0.5023  -6.4282 C.2            1 <1>                0.0000
     54 C54          2.3241   0.7438  -7.8788 C.3            1 <1>                0.0000
     55 O55          1.7934   0.6123  -5.5868 O.2            1 <1>                0.0000
     56 C56          3.9129  -1.5272  -4.3162 C.3            1 <1>                0.0000
     57 O57          4.7521  -2.3453  -5.1339 O.3            1 <1>                0.0000
     58 H58         -4.5225   5.2493   1.1901 H              1 <1>                0.0000
     59 H59         -6.0723   5.2330   0.3148 H              1 <1>                0.0000
     60 H60         -6.0553   5.2235   2.0946 H              1 <1>                0.0000
     61 H61         -6.5467   2.9641   1.1953 H              1 <1>                0.0000
     62 H62         -4.8170   1.7578  -0.0891 H              1 <1>                0.0000
     63 H63         -5.3054   3.2363  -0.9520 H              1 <1>                0.0000
     64 H64         -2.7777   2.9046   3.2198 H              1 <1>                0.0000
     65 H65         -3.3077   4.4066   2.4233 H              1 <1>                0.0000
     66 H66         -4.8047   1.7440   2.4465 H              1 <1>                0.0000
     67 H67         -6.8097   3.9935   5.8090 H              1 <1>                0.0000
     68 H68         -8.3415   1.3630   5.4434 H              1 <1>                0.0000
     69 H69         -7.6285   4.5911   7.2648 H              1 <1>                0.0000
     70 H70         -8.7969   5.3538   9.2895 H              1 <1>                0.0000
     71 H71        -10.5770   3.9763  10.2817 H              1 <1>                0.0000
     72 H72        -11.2022   1.8293   9.2570 H              1 <1>                0.0000
     73 H73        -10.0536   1.0481   7.2280 H              1 <1>                0.0000
     74 H74         -1.5616   1.2832  -0.7052 H              1 <1>                0.0000
     75 H75         -0.6120  -0.4669   1.5922 H              1 <1>                0.0000
     76 H76         -1.5714  -1.0486   0.2039 H              1 <1>                0.0000
     77 H77          0.1636  -0.2606  -1.3586 H              1 <1>                0.0000
     78 H78          1.7738   0.5106   1.1019 H              1 <1>                0.0000
     79 H79          2.2776   0.6618  -0.5932 H              1 <1>                0.0000
     80 H80          1.5172   2.8470   0.3535 H              1 <1>                0.0000
     81 H81          0.4746   2.3171  -0.9951 H              1 <1>                0.0000
     82 H82         -0.1083   1.7966   1.9583 H              1 <1>                0.0000
     83 H83          0.0534   4.6051  -0.3709 H              1 <1>                0.0000
     84 H84         -1.7027   5.1684  -0.2814 H              1 <1>                0.0000
     85 H85          2.8117  -3.5473   0.5479 H              1 <1>                0.0000
     86 H86          2.4117  -5.9070   0.1277 H              1 <1>                0.0000
     87 H87          1.3209  -6.4397  -2.6730 H              1 <1>                0.0000
     88 H88          1.7126  -7.6803  -1.4582 H              1 <1>                0.0000
     89 H89          0.3866  -6.5308  -1.1607 H              1 <1>                0.0000
     90 H90          4.1034  -6.8775  -1.3816 H              1 <1>                0.0000
     91 H91          3.0661  -6.2358  -3.4370 H              1 <1>                0.0000
     92 H92          4.8106  -5.0636   0.1298 H              1 <1>                0.0000
     93 H93          8.7776  -5.0352  -1.6257 H              1 <1>                0.0000
     94 H94          8.8178  -6.7290  -1.0801 H              1 <1>                0.0000
     95 H95          8.1523  -6.3252  -2.6808 H              1 <1>                0.0000
     96 H96          4.8080  -2.7221  -0.6407 H              1 <1>                0.0000
     97 H97          3.5817  -1.1690  -2.2170 H              1 <1>                0.0000
     98 H98          5.2236   0.6223  -2.2261 H              1 <1>                0.0000
     99 H99          7.9799  -0.3066  -3.1518 H              1 <1>                0.0000
    100 H100         7.5375   1.3631  -2.7218 H              1 <1>                0.0000
    101 H101         7.5271   0.0909  -1.4769 H              1 <1>                0.0000
    102 H102         5.7603   1.3734  -4.5129 H              1 <1>                0.0000
    103 H103         7.4195  -0.2813  -4.9838 H              1 <1>                0.0000
    104 H104         3.4727   0.5706  -4.0694 H              1 <1>                0.0000
    105 H105         3.2191   0.5989  -8.4837 H              1 <1>                0.0000
    106 H106         1.5526   0.0428  -8.1976 H              1 <1>                0.0000
    107 H107         1.9620   1.7642  -8.0041 H              1 <1>                0.0000
    108 H108         2.8683  -1.7807  -4.4965 H              1 <1>                0.0000
    109 H109         4.6554  -3.2936  -4.9717 H              1 <1>                0.0000
@<TRIPOS>BOND
    1    1    2 1     
    2    1   58 1     
    3    1   59 1     
    4    1   60 1     
    5    2    7 1     
    6    2    3 1     
    7    2   61 1     
    8    3    4 1     
    9    3   62 1     
   10    3   63 1     
   11    4    5 1     
   12    5   26 1     
   13    5    6 1     
   14    5   19 1     
   15    6    7 1     
   16    6   64 1     
   17    6   65 1     
   18    7    8 1     
   19    7   66 1     
   20    8    9 1     
   21    9   10 2     
   22    9   11 1     
   23   11   12 2     
   24   11   67 1     
   25   12   13 1     
   26   12   68 1     
   27   13   18 ar    
   28   13   14 ar    
   29   14   15 ar    
   30   14   69 1     
   31   15   16 ar    
   32   15   70 1     
   33   16   17 ar    
   34   16   71 1     
   35   17   18 ar    
   36   17   72 1     
   37   18   73 1     
   38   19   20 1     
   39   20   25 1     
   40   20   21 1     
   41   20   74 1     
   42   21   22 1     
   43   21   75 1     
   44   21   76 1     
   45   22   23 1     
   46   22   29 1     
   47   22   77 1     
   48   23   24 1     
   49   23   78 1     
   50   23   79 1     
   51   24   25 1     
   52   24   80 1     
   53   24   81 1     
   54   25   26 1     
   55   25   82 1     
   56   26   28 1     
   57   26   27 1     
   58   27   28 1     
   59   27   83 1     
   60   27   84 1     
   61   29   30 2     
   62   29   31 1     
   63   31   32 1     
   64   32   43 1     
   65   32   33 1     
   66   32   85 1     
   67   33   34 1     
   68   34   35 1     
   69   34   36 1     
   70   34   86 1     
   71   35   87 1     
   72   35   88 1     
   73   35   89 1     
   74   36   37 1     
   75   36   38 1     
   76   36   90 1     
   77   37   91 1     
   78   38   39 1     
   79   38   43 1     
   80   38   92 1     
   81   39   40 1     
   82   40   41 1     
   83   40   42 2     
   84   41   93 1     
   85   41   94 1     
   86   41   95 1     
   87   43   44 1     
   88   43   96 1     
   89   44   45 1     
   90   45   56 1     
   91   45   46 1     
   92   45   97 1     
   93   46   47 1     
   94   47   48 1     
   95   47   49 1     
   96   47   98 1     
   97   48   99 1     
   98   48  100 1     
   99   48  101 1     
  100   49   50 1     
  101   49   51 1     
  102   49  102 1     
  103   50  103 1     
  104   51   52 1     
  105   51   56 1     
  106   51  104 1     
  107   52   53 1     
  108   53   54 1     
  109   53   55 2     
  110   54  105 1     
  111   54  106 1     
  112   54  107 1     
  113   56   57 1     
  114   56  108 1     
  115   57  109 1     
@<TRIPOS>SUBSTRUCTURE
      1 ****           1
@<TRIPOS>SET
DONOR_HYDROGENS      STATIC     ATOMS    <user>   **** ""
3 91 103 109
ATOM$RED        STATIC     ATOMS    COLORGROUP SYSTEM
3 91 103 109
