#       Name:                3KN
#       Creating user name   gbret
#       Creation time:       Thu Sep  8 22:56:54 2016


#       File generated by GOLD software.
#

@<TRIPOS>MOLECULE
3KN
    21    22     1
SMALL
NO_CHARGES


@<TRIPOS>ATOM
      1 N1          -0.5166   4.6857   0.0274 N.pl3          1 <1>                0.0000
      2 C2          -0.4978   3.2997   0.0198 C.2            1 <1>                0.0000
      3 N3          -1.5404   2.5179   0.0199 N.2            1 <1>                0.0000
      4 N4          -1.3395   1.2730   0.0123 N.2            1 <1>                0.0000
      5 C5          -0.1042   0.8587   0.0049 C.2            1 <1>                0.0000
      6 S6           0.9422   2.2797   0.0006 S.3            1 <1>                0.0000
      7 C7           0.3412  -0.5501  -0.0041 C.ar           1 <1>                0.0000
      8 C8           1.6984  -0.8650  -0.0052 C.ar           1 <1>                0.0000
      9 N9           2.0963  -2.1213  -0.0128 N.pl3          1 <1>                0.0000
     10 H10          3.0472  -2.3130  -0.0133 H              1 <1>                0.0000
     11 C11          1.2410  -3.1276  -0.0193 C.ar           1 <1>                0.0000
     12 C12         -0.1209  -2.9070  -0.0188 C.ar           1 <1>                0.0000
     13 C13         -0.5976  -1.5984  -0.0060 C.ar           1 <1>                0.0000
     14 N14         -1.9623  -1.3352  -0.0046 N.pl3          1 <1>                0.0000
     15 H15          0.3167   5.1821   0.0222 H              1 <1>                0.0000
     16 H16         -1.3632   5.1592   0.0340 H              1 <1>                0.0000
     17 H17          2.4314  -0.0718   0.0000 H              1 <1>                0.0000
     18 H18          1.6143  -4.1410  -0.0254 H              1 <1>                0.0000
     19 H19         -0.8092  -3.7393  -0.0241 H              1 <1>                0.0000
     20 H20         -2.2795  -0.4185  -0.0022 H              1 <1>                0.0000
     21 H21         -2.5976  -2.0682  -0.0058 H              1 <1>                0.0000
@<TRIPOS>BOND
    1    1    2 1     
    2    1   15 1     
    3    1   16 1     
    4    2    6 1     
    5    2    3 2     
    6    3    4 1     
    7    4    5 2     
    8    5    6 1     
    9    5    7 1     
   10    7   13 ar    
   11    7    8 ar    
   12    8    9 ar    
   13    8   17 1     
   14    9   10 1     
   15    9   11 ar    
   16   11   12 ar    
   17   11   18 1     
   18   12   13 ar    
   19   12   19 1     
   20   13   14 1     
   21   14   20 1     
   22   14   21 1     
@<TRIPOS>SUBSTRUCTURE
      1 ****           1
@<TRIPOS>SET
DONOR_HYDROGENS      STATIC     ATOMS    <user>   **** ""
5 15 16 10 20 21
ATOM$RED        STATIC     ATOMS    COLORGROUP SYSTEM
5 15 16 10 20 21
