#       Name:                3L7
#       Creating user name   gbret
#       Creation time:       Thu Sep  8 22:58:21 2016


#       File generated by GOLD software.
#

@<TRIPOS>MOLECULE
3L7
    46    47     1
SMALL
NO_CHARGES


@<TRIPOS>ATOM
      1 O1           0.2749  -1.8554  -5.0688 O.co2          1 <1>                0.0000
      2 P2          -0.0160  -0.3167  -5.0226 P.3            1 <1>                0.0000
      3 O3           1.3321   0.4733  -5.1365 O.co2          1 <1>                0.0000
      4 O4          -0.9526   0.0737  -6.2163 O.co2          1 <1>                0.0000
      5 C5          -0.8334   0.1002  -3.4474 C.3            1 <1>                0.0000
      6 C6           0.0270  -0.3898  -2.2810 C.3            1 <1>                0.0000
      7 N7          -0.6616  -0.1114  -1.0136 N.4            1 <1>                0.0000
      8 H8          -0.9066   0.8666  -0.9718 H              1 <1>                0.0000
      9 C9          -1.8814  -0.9257  -0.9299 C.3            1 <1>                0.0000
     10 C10         -2.6719  -0.5330   0.3198 C.3            1 <1>                0.0000
     11 O11         -3.0937   0.8278   0.2086 O.3            1 <1>                0.0000
     12 C12         -3.7223   1.3675   1.2829 C.2            1 <1>                0.0000
     13 C13         -4.2234   2.5833   1.2104 C.2            1 <1>                0.0000
     14 P14         -4.9412   3.3579   2.6853 P.3            1 <1>                0.0000
     15 O15         -4.8363   2.3706   3.8972 O.co2          1 <1>                0.0000
     16 O16         -4.1603   4.6752   3.0159 O.co2          1 <1>                0.0000
     17 O17         -6.4470   3.6969   2.4167 O.co2          1 <1>                0.0000
     18 C18          0.2261  -0.4423   0.1090 C.3            1 <1>                0.0000
     19 C19          1.4381   0.4914   0.0933 C.3            1 <1>                0.0000
     20 N20          2.3234   0.1614   1.2129 N.pl3          1 <1>                0.0000
     21 C21          2.3276   0.7557   2.4393 C.2            1 <1>                0.0000
     22 N22          3.2442   0.2140   3.1885 N.2            1 <1>                0.0000
     23 C23          3.8786  -0.7554   2.4890 C.2            1 <1>                0.0000
     24 C24          3.2929  -0.8036   1.2203 C.2            1 <1>                0.0000
     25 N25          3.7404  -1.6879   0.3178 N.2            1 <1>                0.0000
     26 C26          4.7144  -2.5073   0.5996 C.2            1 <1>                0.0000
     27 N27          5.3262  -2.5131   1.8106 N.am           1 <1>                0.0000
     28 H28          6.0480  -3.1378   1.9831 H              1 <1>                0.0000
     29 C29          4.9328  -1.6569   2.7799 C.2            1 <1>                0.0000
     30 O30          5.4761  -1.6539   3.8711 O.2            1 <1>                0.0000
     31 H31         -0.9584   1.1808  -3.3777 H              1 <1>                0.0000
     32 H32         -1.8101  -0.3819  -3.4060 H              1 <1>                0.0000
     33 H33          0.1918  -1.4631  -2.3768 H              1 <1>                0.0000
     34 H34          0.9863   0.1276  -2.2946 H              1 <1>                0.0000
     35 H35         -2.4935  -0.7553  -1.8155 H              1 <1>                0.0000
     36 H36         -1.6111  -1.9801  -0.8724 H              1 <1>                0.0000
     37 H37         -3.5458  -1.1777   0.4143 H              1 <1>                0.0000
     38 H38         -2.0396  -0.6467   1.2003 H              1 <1>                0.0000
     39 H39         -3.8117   0.8002   2.1975 H              1 <1>                0.0000
     40 H40         -4.2070   3.1192   0.2728 H              1 <1>                0.0000
     41 H41         -0.3143  -0.3203   1.0477 H              1 <1>                0.0000
     42 H42          0.5618  -1.4750   0.0146 H              1 <1>                0.0000
     43 H43          1.9785   0.3694  -0.8454 H              1 <1>                0.0000
     44 H44          1.1024   1.5241   0.1877 H              1 <1>                0.0000
     45 H45          1.6696   1.5562   2.7439 H              1 <1>                0.0000
     46 H46          5.0450  -3.2048  -0.1558 H              1 <1>                0.0000
@<TRIPOS>BOND
    1    1    2 ar    
    2    2    3 ar    
    3    2    4 ar    
    4    2    5 1     
    5    5    6 1     
    6    5   31 1     
    7    5   32 1     
    8    6    7 1     
    9    6   33 1     
   10    6   34 1     
   11    7    8 1     
   12    7    9 1     
   13    7   18 1     
   14    9   10 1     
   15    9   35 1     
   16    9   36 1     
   17   10   11 1     
   18   10   37 1     
   19   10   38 1     
   20   11   12 1     
   21   12   13 2     
   22   12   39 1     
   23   13   14 1     
   24   13   40 1     
   25   14   15 ar    
   26   14   16 ar    
   27   14   17 ar    
   28   18   19 1     
   29   18   41 1     
   30   18   42 1     
   31   19   20 1     
   32   19   43 1     
   33   19   44 1     
   34   20   24 1     
   35   20   21 1     
   36   21   22 2     
   37   21   45 1     
   38   22   23 1     
   39   23   29 1     
   40   23   24 2     
   41   24   25 1     
   42   25   26 2     
   43   26   27 1     
   44   26   46 1     
   45   27   28 1     
   46   27   29 am    
   47   29   30 2     
@<TRIPOS>SUBSTRUCTURE
      1 ****           1
@<TRIPOS>SET
DONOR_HYDROGENS      STATIC     ATOMS    <user>   **** ""
2 8 28
ATOM$RED        STATIC     ATOMS    COLORGROUP SYSTEM
2 8 28
