#       Name:                3OE
#       Creating user name   gbret
#       Creation time:       Thu Sep  8 23:05:20 2016


#       File generated by GOLD software.
#

@<TRIPOS>MOLECULE
3OE
    80    83     1
SMALL
NO_CHARGES


@<TRIPOS>ATOM
      1 C1           2.4820   1.5329  -0.0983 C.3            1 <1>                0.0000
      2 C2           1.8202   2.0216   1.1917 C.3            1 <1>                0.0000
      3 O3           1.8024   3.4504   1.2062 O.3            1 <1>                0.0000
      4 C4           0.3861   1.4930   1.2611 C.3            1 <1>                0.0000
      5 N5          -0.3333   1.8710   0.0422 N.am           1 <1>                0.0000
      6 C6          -0.9208   3.0808  -0.0458 C.2            1 <1>                0.0000
      7 O7          -0.8538   3.8584   0.8865 O.2            1 <1>                0.0000
      8 C8          -1.6456   3.4617  -1.2739 C.ar           1 <1>                0.0000
      9 C9          -1.7287   2.5672  -2.3442 C.ar           1 <1>                0.0000
     10 C10         -2.4061   2.9262  -3.4881 C.ar           1 <1>                0.0000
     11 C11         -3.0069   4.1763  -3.5788 C.ar           1 <1>                0.0000
     12 O12         -3.6741   4.5262  -4.7077 O.3            1 <1>                0.0000
     13 C13         -4.2678   5.8257  -4.7339 C.3            1 <1>                0.0000
     14 C14         -4.9596   6.0353  -6.0562 C.ar           1 <1>                0.0000
     15 C15         -4.2654   6.5783  -7.1211 C.ar           1 <1>                0.0000
     16 C16         -4.9000   6.7705  -8.3341 C.ar           1 <1>                0.0000
     17 C17         -6.2287   6.4193  -8.4822 C.ar           1 <1>                0.0000
     18 C18         -6.9227   5.8754  -7.4176 C.ar           1 <1>                0.0000
     19 C19         -6.2869   5.6792  -6.2059 C.ar           1 <1>                0.0000
     20 C20         -2.9266   5.0689  -2.5164 C.ar           1 <1>                0.0000
     21 C21         -2.2554   4.7155  -1.3671 C.ar           1 <1>                0.0000
     22 C22          0.4097  -0.0087   1.3852 C.2            1 <1>                0.0000
     23 O23          0.0025  -0.6989   0.4748 O.2            1 <1>                0.0000
     24 N24          0.8835  -0.5848   2.5078 N.am           1 <1>                0.0000
     25 C25          0.8014  -2.0378   2.6762 C.3            1 <1>                0.0000
     26 C26          2.0069  -2.6980   2.0041 C.3            1 <1>                0.0000
     27 C27          1.9419  -2.4613   0.4939 C.3            1 <1>                0.0000
     28 C28          3.1293  -3.1116  -0.1681 C.ar           1 <1>                0.0000
     29 C29          4.3028  -2.4004  -0.3352 C.ar           1 <1>                0.0000
     30 C30          5.3920  -2.9969  -0.9424 C.ar           1 <1>                0.0000
     31 C31          5.3078  -4.3047  -1.3822 C.ar           1 <1>                0.0000
     32 C32          4.1345  -5.0162  -1.2144 C.ar           1 <1>                0.0000
     33 C33          3.0467  -4.4210  -0.6032 C.ar           1 <1>                0.0000
     34 C34          0.7989  -2.3738   4.1452 C.2            1 <1>                0.0000
     35 O35          0.8596  -1.4870   4.9703 O.2            1 <1>                0.0000
     36 N36          0.7291  -3.6599   4.5422 N.am           1 <1>                0.0000
     37 C37          0.7266  -3.9866   5.9703 C.3            1 <1>                0.0000
     38 C38          0.6422  -5.4812   6.1436 C.2            1 <1>                0.0000
     39 S39         -0.8494  -6.4047   6.2690 S.3            1 <1>                0.0000
     40 C40          0.0569  -7.9036   6.4290 C.2            1 <1>                0.0000
     41 C41          1.3643  -7.6430   6.3820 C.2            1 <1>                0.0000
     42 C42          1.6872  -6.3067   6.2195 C.2            1 <1>                0.0000
     43 C43          3.1115  -5.8204   6.1438 C.3            1 <1>                0.0000
     44 H44          3.5037   1.9095  -0.1477 H              1 <1>                0.0000
     45 H45          2.4956   0.4430  -0.1093 H              1 <1>                0.0000
     46 H46          1.9182   1.8980  -0.9567 H              1 <1>                0.0000
     47 H47          2.3839   1.6566   2.0502 H              1 <1>                0.0000
     48 H48          1.3330   3.8303   1.9615 H              1 <1>                0.0000
     49 H49         -0.1175   1.9213   2.1278 H              1 <1>                0.0000
     50 H50         -0.3867   1.2507  -0.7016 H              1 <1>                0.0000
     51 H51         -1.2618   1.5958  -2.2746 H              1 <1>                0.0000
     52 H52         -2.4705   2.2355  -4.3159 H              1 <1>                0.0000
     53 H53         -4.9948   5.9094  -3.9262 H              1 <1>                0.0000
     54 H54         -3.4932   6.5817  -4.6053 H              1 <1>                0.0000
     55 H55         -3.2272   6.8528  -7.0054 H              1 <1>                0.0000
     56 H56         -4.3578   7.1955  -9.1658 H              1 <1>                0.0000
     57 H57         -6.7247   6.5701  -9.4297 H              1 <1>                0.0000
     58 H58         -7.9609   5.6013  -7.5333 H              1 <1>                0.0000
     59 H59         -6.8291   5.2543  -5.3741 H              1 <1>                0.0000
     60 H60         -3.3944   6.0395  -2.5909 H              1 <1>                0.0000
     61 H61         -2.1937   5.4095  -0.5418 H              1 <1>                0.0000
     62 H62          1.2787  -0.0374   3.2042 H              1 <1>                0.0000
     63 H63         -0.1166  -2.4054   2.2178 H              1 <1>                0.0000
     64 H64          2.9257  -2.2657   2.4004 H              1 <1>                0.0000
     65 H65          1.9933  -3.7693   2.2048 H              1 <1>                0.0000
     66 H66          1.0231  -2.8935   0.0976 H              1 <1>                0.0000
     67 H67          1.9555  -1.3900   0.2931 H              1 <1>                0.0000
     68 H68          4.3686  -1.3786   0.0084 H              1 <1>                0.0000
     69 H69          6.3086  -2.4410  -1.0736 H              1 <1>                0.0000
     70 H70          6.1585  -4.7705  -1.8573 H              1 <1>                0.0000
     71 H71          4.0686  -6.0378  -1.5583 H              1 <1>                0.0000
     72 H72          2.1301  -4.9769  -0.4721 H              1 <1>                0.0000
     73 H73          0.6805  -4.3692   3.8823 H              1 <1>                0.0000
     74 H74          1.6447  -3.6189   6.4287 H              1 <1>                0.0000
     75 H75         -0.1322  -3.5162   6.4492 H              1 <1>                0.0000
     76 H76         -0.3784  -8.8848   6.5475 H              1 <1>                0.0000
     77 H77          2.1140  -8.4163   6.4608 H              1 <1>                0.0000
     78 H78          3.4422  -5.8245   5.1052 H              1 <1>                0.0000
     79 H79          3.1709  -4.8067   6.5400 H              1 <1>                0.0000
     80 H80          3.7518  -6.4783   6.7315 H              1 <1>                0.0000
@<TRIPOS>BOND
    1    1    2 1     
    2    1   44 1     
    3    1   45 1     
    4    1   46 1     
    5    2    3 1     
    6    2    4 1     
    7    2   47 1     
    8    3   48 1     
    9    4    5 1     
   10    4   22 1     
   11    4   49 1     
   12    5    6 am    
   13    5   50 1     
   14    6    7 2     
   15    6    8 1     
   16    8   21 ar    
   17    8    9 ar    
   18    9   10 ar    
   19    9   51 1     
   20   10   11 ar    
   21   10   52 1     
   22   11   12 1     
   23   11   20 ar    
   24   12   13 1     
   25   13   14 1     
   26   13   53 1     
   27   13   54 1     
   28   14   19 ar    
   29   14   15 ar    
   30   15   16 ar    
   31   15   55 1     
   32   16   17 ar    
   33   16   56 1     
   34   17   18 ar    
   35   17   57 1     
   36   18   19 ar    
   37   18   58 1     
   38   19   59 1     
   39   20   21 ar    
   40   20   60 1     
   41   21   61 1     
   42   22   23 2     
   43   22   24 am    
   44   24   25 1     
   45   24   62 1     
   46   25   26 1     
   47   25   34 1     
   48   25   63 1     
   49   26   27 1     
   50   26   64 1     
   51   26   65 1     
   52   27   28 1     
   53   27   66 1     
   54   27   67 1     
   55   28   33 ar    
   56   28   29 ar    
   57   29   30 ar    
   58   29   68 1     
   59   30   31 ar    
   60   30   69 1     
   61   31   32 ar    
   62   31   70 1     
   63   32   33 ar    
   64   32   71 1     
   65   33   72 1     
   66   34   35 2     
   67   34   36 am    
   68   36   37 1     
   69   36   73 1     
   70   37   38 1     
   71   37   74 1     
   72   37   75 1     
   73   38   42 2     
   74   38   39 1     
   75   39   40 1     
   76   40   41 2     
   77   40   76 1     
   78   41   42 1     
   79   41   77 1     
   80   42   43 1     
   81   43   78 1     
   82   43   79 1     
   83   43   80 1     
@<TRIPOS>SUBSTRUCTURE
      1 ****           1
@<TRIPOS>SET
DONOR_HYDROGENS      STATIC     ATOMS    <user>   **** ""
4 48 50 62 73
ATOM$RED        STATIC     ATOMS    COLORGROUP SYSTEM
4 48 50 62 73
