#       Name:                3QN
#       Creating user name   gbret
#       Creation time:       Thu Sep  8 23:10:23 2016


#       File generated by GOLD software.
#

@<TRIPOS>MOLECULE
3QN
    46    46     1
SMALL
NO_CHARGES


@<TRIPOS>ATOM
      1 C1          -1.0333   4.4559  -3.4405 C.3            1 <1>                0.0000
      2 C2          -1.0128   2.9490  -3.4488 C.ar           1 <1>                0.0000
      3 C3          -1.0091   2.2658  -4.6495 C.ar           1 <1>                0.0000
      4 C4          -0.9899   0.8814  -4.6677 C.ar           1 <1>                0.0000
      5 C5          -0.9743   0.1705  -3.4865 C.ar           1 <1>                0.0000
      6 C6          -0.9530  -1.3361  -3.5128 C.3            1 <1>                0.0000
      7 O7          -0.9528  -1.7890  -4.8681 O.3            1 <1>                0.0000
      8 P8          -0.9325  -3.3474  -5.2720 P.3            1 <1>                0.0000
      9 O9          -2.2594  -4.0285  -4.7925 O.co2          1 <1>                0.0000
     10 O10         -0.8091  -3.4821  -6.8280 O.co2          1 <1>                0.0000
     11 O11          0.2907  -4.0481  -4.5885 O.co2          1 <1>                0.0000
     12 C12         -0.9779   0.8487  -2.2656 C.ar           1 <1>                0.0000
     13 C13         -0.9613   0.0952  -0.9990 C.2            1 <1>                0.0000
     14 N14         -0.9646   0.7275   0.1303 N.2            1 <1>                0.0000
     15 C15         -0.9481  -0.0216   1.3892 C.3            1 <1>                0.0000
     16 C16          0.3591   0.2597   2.1329 C.3            1 <1>                0.0000
     17 C17          0.3763  -0.5226   3.4477 C.3            1 <1>                0.0000
     18 C18          1.6835  -0.2413   4.1914 C.3            1 <1>                0.0000
     19 C19          1.7007  -1.0236   5.5062 C.3            1 <1>                0.0000
     20 N20          1.7194  -2.4640   5.2187 N.4            1 <1>                0.0000
     21 H21          1.7308  -2.9799   6.0857 H              1 <1>                0.0000
     22 H22          0.8963  -2.7123   4.6904 H              1 <1>                0.0000
     23 H23          2.5439  -2.6893   4.6824 H              1 <1>                0.0000
     24 C24          2.9300  -0.6528   6.2952 C.2            1 <1>                0.0000
     25 O25          2.8907   0.2755   7.0845 O.co2          1 <1>                0.0000
     26 O26          3.9638  -1.2813   6.1442 O.co2          1 <1>                0.0000
     27 C27         -0.9920   2.2506  -2.2518 C.ar           1 <1>                0.0000
     28 O28         -0.9951   2.9206  -1.0716 O.3            1 <1>                0.0000
     29 H29         -0.0107   4.8332  -3.4482 H              1 <1>                0.0000
     30 H30         -1.5604   4.8170  -4.3236 H              1 <1>                0.0000
     31 H31         -1.5435   4.8074  -2.5437 H              1 <1>                0.0000
     32 H32         -1.0216   2.8148  -5.5795 H              1 <1>                0.0000
     33 H33         -0.9876   0.3561  -5.6113 H              1 <1>                0.0000
     34 H34         -0.0554  -1.6956  -3.0095 H              1 <1>                0.0000
     35 H35         -1.8352  -1.7210  -3.0012 H              1 <1>                0.0000
     36 H36         -0.9463  -0.9846  -1.0133 H              1 <1>                0.0000
     37 H37         -1.7913   0.2875   2.0069 H              1 <1>                0.0000
     38 H38         -1.0238  -1.0883   1.1783 H              1 <1>                0.0000
     39 H39          1.2023  -0.0493   1.5152 H              1 <1>                0.0000
     40 H40          0.4349   1.3264   2.3438 H              1 <1>                0.0000
     41 H41         -0.4669  -0.2135   4.0654 H              1 <1>                0.0000
     42 H42          0.3006  -1.5893   3.2368 H              1 <1>                0.0000
     43 H43          2.5267  -0.5503   3.5736 H              1 <1>                0.0000
     44 H44          1.7593   0.8254   4.4023 H              1 <1>                0.0000
     45 H45          0.8101  -0.7802   6.0855 H              1 <1>                0.0000
     46 H46         -0.1126   3.1237  -0.7323 H              1 <1>                0.0000
@<TRIPOS>BOND
    1    1    2 1     
    2    1   29 1     
    3    1   30 1     
    4    1   31 1     
    5    2   27 ar    
    6    2    3 ar    
    7    3    4 ar    
    8    3   32 1     
    9    4    5 ar    
   10    4   33 1     
   11    5    6 1     
   12    5   12 ar    
   13    6    7 1     
   14    6   34 1     
   15    6   35 1     
   16    7    8 1     
   17    8    9 ar    
   18    8   10 ar    
   19    8   11 ar    
   20   12   13 1     
   21   12   27 ar    
   22   13   14 2     
   23   13   36 1     
   24   14   15 1     
   25   15   16 1     
   26   15   37 1     
   27   15   38 1     
   28   16   17 1     
   29   16   39 1     
   30   16   40 1     
   31   17   18 1     
   32   17   41 1     
   33   17   42 1     
   34   18   19 1     
   35   18   43 1     
   36   18   44 1     
   37   19   20 1     
   38   19   24 1     
   39   19   45 1     
   40   20   21 1     
   41   20   22 1     
   42   20   23 1     
   43   24   25 ar    
   44   24   26 ar    
   45   27   28 1     
   46   28   46 1     
@<TRIPOS>SUBSTRUCTURE
      1 ****           1
@<TRIPOS>SET
DONOR_HYDROGENS      STATIC     ATOMS    <user>   **** ""
4 21 22 23 46
ATOM$RED        STATIC     ATOMS    COLORGROUP SYSTEM
4 21 22 23 46
