#       Name:                3R0
#       Creating user name   gbret
#       Creation time:       Thu Sep  8 23:11:16 2016


#       File generated by GOLD software.
#

@<TRIPOS>MOLECULE
3R0
    50    54     1
SMALL
NO_CHARGES


@<TRIPOS>ATOM
      1 C1           2.5354   6.7122  -0.8838 C.3            1 <1>                0.0000
      2 O2           2.5553   5.2833  -0.8863 O.3            1 <1>                0.0000
      3 C3           1.2581   4.6839  -0.8785 C.3            1 <1>                0.0000
      4 C4           0.7871   4.4645  -2.3188 C.3            1 <1>                0.0000
      5 C5          -0.5751   3.7673  -2.3043 C.3            1 <1>                0.0000
      6 N6          -0.4603   2.4804  -1.6064 N.3            1 <1>                0.0000
      7 C7          -0.0550   2.6691  -0.2077 C.3            1 <1>                0.0000
      8 C8           1.3228   3.3335  -0.1596 C.3            1 <1>                0.0000
      9 C9          -1.6421   1.7647  -1.6881 C.ar           1 <1>                0.0000
     10 N10         -2.6680   2.2847  -2.3460 N.ar           1 <1>                0.0000
     11 C11         -3.8152   1.6296  -2.4462 C.ar           1 <1>                0.0000
     12 C12         -3.9380   0.3873  -1.8546 C.ar           1 <1>                0.0000
     13 C13         -2.8401  -0.1349  -1.1681 C.ar           1 <1>                0.0000
     14 N14         -2.9177  -1.3784  -0.5592 N.pl3          1 <1>                0.0000
     15 C15         -1.7836  -1.9391   0.0288 C.ar           1 <1>                0.0000
     16 C16         -1.8460  -3.2253   0.5366 C.ar           1 <1>                0.0000
     17 C17         -0.6995  -3.7721   1.1223 C.ar           1 <1>                0.0000
     18 N18         -0.4048  -4.9569   1.7010 N.2            1 <1>                0.0000
     19 C19          0.8476  -4.9564   2.0957 C.2            1 <1>                0.0000
     20 N20          1.4309  -3.7581   1.7882 N.pl3          1 <1>                0.0000
     21 H21          2.3479  -3.5003   1.9716 H              1 <1>                0.0000
     22 C22          0.4684  -2.9824   1.1666 C.ar           1 <1>                0.0000
     23 C23          0.4411  -1.7061   0.6351 C.ar           1 <1>                0.0000
     24 N24         -0.6621  -1.2323   0.0868 N.ar           1 <1>                0.0000
     25 C25          1.5254  -6.0822   2.7716 C.2            1 <1>                0.0000
     26 C26          2.8658  -6.1090   3.2127 C.2            1 <1>                0.0000
     27 N27          3.0893  -7.2731   3.7592 N.2            1 <1>                0.0000
     28 N28          1.9175  -8.0355   3.6941 N.pl3          1 <1>                0.0000
     29 H29          1.8095  -8.9397   4.0282 H              1 <1>                0.0000
     30 C30          0.9646  -7.2991   3.0938 C.2            1 <1>                0.0000
     31 N31         -1.7175   0.5749  -1.1114 N.ar           1 <1>                0.0000
     32 H32          3.5578   7.0899  -0.8901 H              1 <1>                0.0000
     33 H33          2.0104   7.0698  -1.7696 H              1 <1>                0.0000
     34 H34          2.0226   7.0668   0.0103 H              1 <1>                0.0000
     35 H35          0.5573   5.3390  -0.3609 H              1 <1>                0.0000
     36 H36          0.6981   5.4267  -2.8232 H              1 <1>                0.0000
     37 H37          1.5091   3.8416  -2.8469 H              1 <1>                0.0000
     38 H38         -1.2999   4.3969  -1.7881 H              1 <1>                0.0000
     39 H39         -0.9068   3.5967  -3.3285 H              1 <1>                0.0000
     40 H40         -0.7822   3.3039   0.2987 H              1 <1>                0.0000
     41 H41         -0.0089   1.7009   0.2909 H              1 <1>                0.0000
     42 H42          2.0532   2.6929  -0.6537 H              1 <1>                0.0000
     43 H43          1.6164   3.4877   0.8787 H              1 <1>                0.0000
     44 H44         -4.6456   2.0624  -2.9844 H              1 <1>                0.0000
     45 H45         -4.8624  -0.1671  -1.9212 H              1 <1>                0.0000
     46 H46         -3.7604  -1.8583  -0.5421 H              1 <1>                0.0000
     47 H47         -2.7618  -3.7951   0.4819 H              1 <1>                0.0000
     48 H48          1.3305  -1.0941   0.6645 H              1 <1>                0.0000
     49 H49          3.5818  -5.3065   3.1145 H              1 <1>                0.0000
     50 H50         -0.0512  -7.6074   2.8950 H              1 <1>                0.0000
@<TRIPOS>BOND
    1    1    2 1     
    2    1   32 1     
    3    1   33 1     
    4    1   34 1     
    5    2    3 1     
    6    3    8 1     
    7    3    4 1     
    8    3   35 1     
    9    4    5 1     
   10    4   36 1     
   11    4   37 1     
   12    5    6 1     
   13    5   38 1     
   14    5   39 1     
   15    6    7 1     
   16    6    9 1     
   17    7    8 1     
   18    7   40 1     
   19    7   41 1     
   20    8   42 1     
   21    8   43 1     
   22    9   31 ar    
   23    9   10 ar    
   24   10   11 ar    
   25   11   12 ar    
   26   11   44 1     
   27   12   13 ar    
   28   12   45 1     
   29   13   14 1     
   30   13   31 ar    
   31   14   15 1     
   32   14   46 1     
   33   15   24 ar    
   34   15   16 ar    
   35   16   17 ar    
   36   16   47 1     
   37   17   22 ar    
   38   17   18 1     
   39   18   19 2     
   40   19   20 1     
   41   19   25 1     
   42   20   21 1     
   43   20   22 1     
   44   22   23 ar    
   45   23   24 ar    
   46   23   48 1     
   47   25   30 2     
   48   25   26 1     
   49   26   27 2     
   50   26   49 1     
   51   27   28 1     
   52   28   29 1     
   53   28   30 1     
   54   30   50 1     
@<TRIPOS>SUBSTRUCTURE
      1 ****           1
@<TRIPOS>SET
DONOR_HYDROGENS      STATIC     ATOMS    <user>   **** ""
3 46 21 29
ATOM$RED        STATIC     ATOMS    COLORGROUP SYSTEM
3 46 21 29
