#       Name:                3SN
#       Creating user name   gbret
#       Creation time:       Thu Sep  8 23:14:53 2016


#       File generated by GOLD software.
#

@<TRIPOS>MOLECULE
3SN
    59    62     1
SMALL
NO_CHARGES


@<TRIPOS>ATOM
      1 C1           2.0161   3.3629   6.3017 C.3            1 <1>                0.0000
      2 C2           1.7111   3.9708   4.9568 C.2            1 <1>                0.0000
      3 O3           1.4132   5.1436   4.8750 O.2            1 <1>                0.0000
      4 N4           1.7694   3.2111   3.8451 N.am           1 <1>                0.0000
      5 C5           1.5987   3.8092   2.5123 C.3            1 <1>                0.0000
      6 C6           0.5349   3.0096   1.7525 C.3            1 <1>                0.0000
      7 N7           0.9031   1.5874   1.7526 N.3            1 <1>                0.0000
      8 C8           0.9255   1.0429   3.1168 C.3            1 <1>                0.0000
      9 C9           2.0114   1.7630   3.9322 C.3            1 <1>                0.0000
     10 C10          0.0469   0.8487   0.9329 C.ar           1 <1>                0.0000
     11 C11         -0.9820   1.4843   0.2488 C.ar           1 <1>                0.0000
     12 C12         -1.8272   0.7523  -0.5616 C.ar           1 <1>                0.0000
     13 C13         -1.6515  -0.6129  -0.6932 C.ar           1 <1>                0.0000
     14 C14         -2.5760  -1.4083  -1.5785 C.3            1 <1>                0.0000
     15 N15         -1.8483  -1.8534  -2.7696 N.pl3          1 <1>                0.0000
     16 C16         -1.8028  -3.2774  -3.1106 C.3            1 <1>                0.0000
     17 C17         -1.9305  -4.2070  -1.8921 C.3            1 <1>                0.0000
     18 C18         -3.4522  -4.1496  -2.1067 C.3            1 <1>                0.0000
     19 C19         -3.1532  -3.8412  -3.5833 C.3            1 <1>                0.0000
     20 S20         -1.0773  -0.7468  -3.7306 S.o2           1 <1>                0.0000
     21 O21         -0.9621  -1.3425  -5.0155 O.2            1 <1>                0.0000
     22 O22         -1.7237   0.4986  -3.5065 O.2            1 <1>                0.0000
     23 C23          0.5639  -0.5739  -3.1134 C.ar           1 <1>                0.0000
     24 C24          0.8419   0.3720  -2.1444 C.ar           1 <1>                0.0000
     25 C25          2.1295   0.5077  -1.6601 C.ar           1 <1>                0.0000
     26 C26          3.1391  -0.3027  -2.1445 C.ar           1 <1>                0.0000
     27 C27          2.8610  -1.2493  -3.1129 C.ar           1 <1>                0.0000
     28 C28          1.5725  -1.3879  -3.5940 C.ar           1 <1>                0.0000
     29 C29         -0.6273  -1.2506  -0.0132 C.ar           1 <1>                0.0000
     30 F30         -0.4582  -2.5846  -0.1438 F              1 <1>                0.0000
     31 C31          0.2259  -0.5213   0.7955 C.ar           1 <1>                0.0000
     32 H32          1.0873   3.0471   6.7767 H              1 <1>                0.0000
     33 H33          2.6689   2.5000   6.1707 H              1 <1>                0.0000
     34 H34          2.5127   4.1021   6.9303 H              1 <1>                0.0000
     35 H35          1.2746   4.8449   2.6145 H              1 <1>                0.0000
     36 H36          2.5432   3.7700   1.9697 H              1 <1>                0.0000
     37 H37         -0.4317   3.1351   2.2402 H              1 <1>                0.0000
     38 H38          0.4741   3.3694   0.7254 H              1 <1>                0.0000
     39 H39         -0.0466   1.1958   3.5855 H              1 <1>                0.0000
     40 H40          1.1479  -0.0235   3.0792 H              1 <1>                0.0000
     41 H41          2.9938   1.5248   3.5244 H              1 <1>                0.0000
     42 H42          1.9575   1.4463   4.9738 H              1 <1>                0.0000
     43 H43         -1.1209   2.5505   0.3511 H              1 <1>                0.0000
     44 H44         -2.6268   1.2468  -1.0931 H              1 <1>                0.0000
     45 H45         -2.9444  -2.2765  -1.0322 H              1 <1>                0.0000
     46 H46         -3.4175  -0.7841  -1.8790 H              1 <1>                0.0000
     47 H47         -0.9705  -3.5289  -3.7679 H              1 <1>                0.0000
     48 H48         -1.5040  -5.1973  -2.0519 H              1 <1>                0.0000
     49 H49         -1.6037  -3.7499  -0.9581 H              1 <1>                0.0000
     50 H50         -3.9512  -5.1064  -1.9529 H              1 <1>                0.0000
     51 H51         -3.9370  -3.3286  -1.5786 H              1 <1>                0.0000
     52 H52         -3.8135  -3.0888  -4.0146 H              1 <1>                0.0000
     53 H53         -3.0610  -4.7315  -4.2054 H              1 <1>                0.0000
     54 H54          0.0531   1.0052  -1.7659 H              1 <1>                0.0000
     55 H55          2.3467   1.2472  -0.9036 H              1 <1>                0.0000
     56 H56          4.1452  -0.1962  -1.7667 H              1 <1>                0.0000
     57 H57          3.6499  -1.8822  -3.4916 H              1 <1>                0.0000
     58 H58          1.3552  -2.1274  -4.3506 H              1 <1>                0.0000
     59 H59          1.0250  -1.0182   1.3257 H              1 <1>                0.0000
@<TRIPOS>BOND
    1    1    2 1     
    2    1   32 1     
    3    1   33 1     
    4    1   34 1     
    5    2    3 2     
    6    2    4 am    
    7    4    9 1     
    8    4    5 1     
    9    5    6 1     
   10    5   35 1     
   11    5   36 1     
   12    6    7 1     
   13    6   37 1     
   14    6   38 1     
   15    7    8 1     
   16    7   10 1     
   17    8    9 1     
   18    8   39 1     
   19    8   40 1     
   20    9   41 1     
   21    9   42 1     
   22   10   31 ar    
   23   10   11 ar    
   24   11   12 ar    
   25   11   43 1     
   26   12   13 ar    
   27   12   44 1     
   28   13   14 1     
   29   13   29 ar    
   30   14   15 1     
   31   14   45 1     
   32   14   46 1     
   33   15   16 1     
   34   15   20 1     
   35   16   19 1     
   36   16   17 1     
   37   16   47 1     
   38   17   18 1     
   39   17   48 1     
   40   17   49 1     
   41   18   19 1     
   42   18   50 1     
   43   18   51 1     
   44   19   52 1     
   45   19   53 1     
   46   20   21 2     
   47   20   22 2     
   48   20   23 1     
   49   23   28 ar    
   50   23   24 ar    
   51   24   25 ar    
   52   24   54 1     
   53   25   26 ar    
   54   25   55 1     
   55   26   27 ar    
   56   26   56 1     
   57   27   28 ar    
   58   27   57 1     
   59   28   58 1     
   60   29   30 1     
   61   29   31 ar    
   62   31   59 1     
@<TRIPOS>SUBSTRUCTURE
      1 ****           1
