#       Name:                3SW
#       Creating user name   gbret
#       Creation time:       Thu Sep  8 23:15:31 2016


#       File generated by GOLD software.
#

@<TRIPOS>MOLECULE
3SW
    59    60     1
SMALL
NO_CHARGES


@<TRIPOS>ATOM
      1 C1          -2.1472   2.4134  -3.4613 C.3            1 <1>                0.0000
      2 C2          -1.6691   3.5790  -2.5932 C.3            1 <1>                0.0000
      3 C3          -2.8654   4.4504  -2.2054 C.3            1 <1>                0.0000
      4 C4          -1.0041   3.0334  -1.3279 C.3            1 <1>                0.0000
      5 C5           0.2634   2.2656  -1.7084 C.3            1 <1>                0.0000
      6 C6           0.9183   1.7281  -0.4621 C.2            1 <1>                0.0000
      7 C7           1.8922   2.4303   0.1126 C.2            1 <1>                0.0000
      8 C8           2.5841   1.9397   1.3557 C.3            1 <1>                0.0000
      9 C9           1.6132   1.0924   2.1828 C.3            1 <1>                0.0000
     10 C10          1.1092  -0.0678   1.3181 C.3            1 <1>                0.0000
     11 C11          0.4782   0.4936   0.0695 C.2            1 <1>                0.0000
     12 C12         -0.5142  -0.1946  -0.5538 C.2            1 <1>                0.0000
     13 C13         -1.0136  -1.3787   0.0161 C.2            1 <1>                0.0000
     14 C14         -2.4863  -1.5128   0.3059 C.3            1 <1>                0.0000
     15 C15         -0.1644  -2.4070   0.3070 C.2            1 <1>                0.0000
     16 C16         -0.6623  -3.5878   0.8753 C.2            1 <1>                0.0000
     17 C17          0.1941  -4.6249   1.1687 C.2            1 <1>                0.0000
     18 C18         -0.3033  -5.8047   1.7365 C.2            1 <1>                0.0000
     19 C19         -1.7761  -5.9388   2.0263 C.3            1 <1>                0.0000
     20 C20          0.5531  -6.8417   2.0299 C.2            1 <1>                0.0000
     21 C21          0.0396  -8.0766   2.4578 C.2            1 <1>                0.0000
     22 O22         -1.2779  -8.2851   2.4640 O.co2          1 <1>                0.0000
     23 O23          0.8694  -9.0413   2.8580 O.co2          1 <1>                0.0000
     24 C24          2.3112   3.7443  -0.4947 C.3            1 <1>                0.0000
     25 C25          3.3818   4.5531   0.2406 C.3            1 <1>                0.0000
     26 C26          3.7268   3.8384  -1.0675 C.3            1 <1>                0.0000
     27 H27         -2.8664   1.8150  -2.9021 H              1 <1>                0.0000
     28 H28         -2.6209   2.8022  -4.3627 H              1 <1>                0.0000
     29 H29         -1.2949   1.7927  -3.7376 H              1 <1>                0.0000
     30 H30         -0.9498   4.1774  -3.1524 H              1 <1>                0.0000
     31 H31         -3.5846   3.8520  -1.6462 H              1 <1>                0.0000
     32 H32         -2.5248   5.2808  -1.5869 H              1 <1>                0.0000
     33 H33         -3.3391   4.8391  -3.1068 H              1 <1>                0.0000
     34 H34         -0.7433   3.8613  -0.6686 H              1 <1>                0.0000
     35 H35         -1.6942   2.3637  -0.8146 H              1 <1>                0.0000
     36 H36          0.0025   1.4377  -2.3677 H              1 <1>                0.0000
     37 H37          0.9535   2.9352  -2.2217 H              1 <1>                0.0000
     38 H38          3.4466   1.3346   1.0763 H              1 <1>                0.0000
     39 H39          2.9159   2.7929   1.9472 H              1 <1>                0.0000
     40 H40          2.1278   0.6982   3.0590 H              1 <1>                0.0000
     41 H41          0.7696   1.7066   2.4978 H              1 <1>                0.0000
     42 H42          1.9456  -0.7132   1.0498 H              1 <1>                0.0000
     43 H43          0.3672  -0.6413   1.8736 H              1 <1>                0.0000
     44 H44         -0.9193   0.1682  -1.4869 H              1 <1>                0.0000
     45 H45         -2.9758  -2.0187  -0.5264 H              1 <1>                0.0000
     46 H46         -2.6259  -2.0942   1.2172 H              1 <1>                0.0000
     47 H47         -2.9226  -0.5225   0.4363 H              1 <1>                0.0000
     48 H48          0.8911  -2.3109   0.0994 H              1 <1>                0.0000
     49 H49         -1.7178  -3.6839   1.0830 H              1 <1>                0.0000
     50 H50          1.2496  -4.5288   0.9611 H              1 <1>                0.0000
     51 H51         -2.2652  -6.4467   1.1951 H              1 <1>                0.0000
     52 H52         -1.9156  -6.5182   2.9389 H              1 <1>                0.0000
     53 H53         -2.2128  -4.9483   2.1544 H              1 <1>                0.0000
     54 H54          1.6199  -6.7055   1.9310 H              1 <1>                0.0000
     55 H55          1.5237   4.2985  -1.0055 H              1 <1>                0.0000
     56 H56          3.2987   5.6396   0.2138 H              1 <1>                0.0000
     57 H57          3.7831   4.1347   1.1637 H              1 <1>                0.0000
     58 H58          4.3551   2.9499  -1.0051 H              1 <1>                0.0000
     59 H59          3.8707   4.4548  -1.9549 H              1 <1>                0.0000
@<TRIPOS>BOND
    1    1    2 1     
    2    1   27 1     
    3    1   28 1     
    4    1   29 1     
    5    2    3 1     
    6    2    4 1     
    7    2   30 1     
    8    3   31 1     
    9    3   32 1     
   10    3   33 1     
   11    4    5 1     
   12    4   34 1     
   13    4   35 1     
   14    5    6 1     
   15    5   36 1     
   16    5   37 1     
   17    6   11 1     
   18    6    7 2     
   19    7    8 1     
   20    7   24 1     
   21    8    9 1     
   22    8   38 1     
   23    8   39 1     
   24    9   10 1     
   25    9   40 1     
   26    9   41 1     
   27   10   11 1     
   28   10   42 1     
   29   10   43 1     
   30   11   12 2     
   31   12   13 1     
   32   12   44 1     
   33   13   14 1     
   34   13   15 2     
   35   14   45 1     
   36   14   46 1     
   37   14   47 1     
   38   15   16 1     
   39   15   48 1     
   40   16   17 2     
   41   16   49 1     
   42   17   18 1     
   43   17   50 1     
   44   18   19 1     
   45   18   20 2     
   46   19   51 1     
   47   19   52 1     
   48   19   53 1     
   49   20   21 1     
   50   20   54 1     
   51   21   22 ar    
   52   21   23 ar    
   53   24   26 1     
   54   24   25 1     
   55   24   55 1     
   56   25   26 1     
   57   25   56 1     
   58   25   57 1     
   59   26   58 1     
   60   26   59 1     
@<TRIPOS>SUBSTRUCTURE
      1 ****           1
