#       Name:                3T4
#       Creating user name   gbret
#       Creation time:       Thu Sep  8 23:16:01 2016


#       File generated by GOLD software.
#

@<TRIPOS>MOLECULE
3T4
    38    39     1
SMALL
NO_CHARGES


@<TRIPOS>ATOM
      1 O1           5.6376   1.2150   0.1242 O.co2          1 <1>                0.0000
      2 C2           5.6210   2.4341   0.1309 C.2            1 <1>                0.0000
      3 O3           6.6685   3.0580   0.1243 O.co2          1 <1>                0.0000
      4 C4           4.3059   3.1698   0.1412 C.3            1 <1>                0.0000
      5 O5           3.2324   2.2265   0.1411 O.3            1 <1>                0.0000
      6 C6           1.9720   2.7279   0.1498 C.ar           1 <1>                0.0000
      7 C7           1.7682   4.0993   0.1525 C.ar           1 <1>                0.0000
      8 C8           0.4835   4.6086   0.1614 C.ar           1 <1>                0.0000
      9 Cl9          0.2360   6.3268   0.1642 Cl             1 <1>                0.0000
     10 C10         -0.6093   3.7543   0.1677 C.ar           1 <1>                0.0000
     11 C11         -0.4240   2.3896   0.1656 C.ar           1 <1>                0.0000
     12 C12          0.8698   1.8618   0.1503 C.ar           1 <1>                0.0000
     13 C13          1.0748   0.4013   0.1480 C.2            1 <1>                0.0000
     14 O14          2.2020  -0.0544   0.1347 O.2            1 <1>                0.0000
     15 N15          0.0126  -0.4282   0.1606 N.am           1 <1>                0.0000
     16 C16          0.2162  -1.8790   0.1583 C.3            1 <1>                0.0000
     17 C17         -1.1210  -2.5739   0.1742 C.ar           1 <1>                0.0000
     18 C18         -1.7205  -2.8863   1.3817 C.ar           1 <1>                0.0000
     19 C19         -2.9442  -3.5223   1.4036 C.ar           1 <1>                0.0000
     20 C20         -3.5782  -3.8509   0.2034 C.ar           1 <1>                0.0000
     21 C21         -4.8490  -4.5108   0.2186 C.1            1 <1>                0.0000
     22 N22         -5.8571  -5.0343   0.2305 N.1            1 <1>                0.0000
     23 C23         -2.9677  -3.5327  -1.0111 C.ar           1 <1>                0.0000
     24 C24         -1.7461  -2.8915  -1.0183 C.ar           1 <1>                0.0000
     25 N25         -3.6319  -3.8776  -2.2880 N.pl3          1 <1>                0.0000
     26 O26         -3.0981  -3.5994  -3.3468 O.2            1 <1>                0.0000
     27 O27         -4.7125  -4.4396  -2.2800 O.2            1 <1>                0.0000
     28 H28          4.2438   3.7908   1.0348 H              1 <1>                0.0000
     29 H29          4.2354   3.8004  -0.7451 H              1 <1>                0.0000
     30 H30          2.6144   4.7704   0.1480 H              1 <1>                0.0000
     31 H31         -1.6097   4.1611   0.1747 H              1 <1>                0.0000
     32 H32         -1.2777   1.7281   0.1713 H              1 <1>                0.0000
     33 H33         -0.8866  -0.0647   0.1713 H              1 <1>                0.0000
     34 H34          0.7649  -2.1675  -0.7382 H              1 <1>                0.0000
     35 H35          0.7860  -2.1674   1.0416 H              1 <1>                0.0000
     36 H36         -1.2289  -2.6320   2.3091 H              1 <1>                0.0000
     37 H37         -3.4108  -3.7659   2.3466 H              1 <1>                0.0000
     38 H38         -1.2727  -2.6447  -1.9572 H              1 <1>                0.0000
@<TRIPOS>BOND
    1    1    2 ar    
    2    2    3 ar    
    3    2    4 1     
    4    4    5 1     
    5    4   28 1     
    6    4   29 1     
    7    5    6 1     
    8    6   12 ar    
    9    6    7 ar    
   10    7    8 ar    
   11    7   30 1     
   12    8    9 1     
   13    8   10 ar    
   14   10   11 ar    
   15   10   31 1     
   16   11   12 ar    
   17   11   32 1     
   18   12   13 1     
   19   13   14 2     
   20   13   15 am    
   21   15   16 1     
   22   15   33 1     
   23   16   17 1     
   24   16   34 1     
   25   16   35 1     
   26   17   24 ar    
   27   17   18 ar    
   28   18   19 ar    
   29   18   36 1     
   30   19   20 ar    
   31   19   37 1     
   32   20   21 1     
   33   20   23 ar    
   34   21   22 3     
   35   23   24 ar    
   36   23   25 1     
   37   24   38 1     
   38   25   26 2     
   39   25   27 2     
@<TRIPOS>SUBSTRUCTURE
      1 ****           1
@<TRIPOS>SET
DONOR_HYDROGENS      STATIC     ATOMS    <user>   **** ""
1 33
ATOM$RED        STATIC     ATOMS    COLORGROUP SYSTEM
1 33
