#       Name:                3X5
#       Creating user name   gbret
#       Creation time:       Thu Sep  8 23:25:15 2016


#       File generated by GOLD software.
#

@<TRIPOS>MOLECULE
3X5
    70    74     1
SMALL
NO_CHARGES


@<TRIPOS>ATOM
      1 O1          -5.7037  -0.9532   0.6807 O.2            1 <1>                0.0000
      2 C2          -5.6439   0.2168   0.3876 C.2            1 <1>                0.0000
      3 C3          -4.3102   0.9175   0.3524 C.3            1 <1>                0.0000
      4 C4          -4.3163   2.0761   1.3517 C.3            1 <1>                0.0000
      5 C5          -3.0299   2.8515   1.2296 C.2            1 <1>                0.0000
      6 C6          -1.8602   2.5661   1.8328 C.2            1 <1>                0.0000
      7 N7          -0.9662   3.4963   1.4658 N.2            1 <1>                0.0000
      8 C8          -1.5375   4.3472   0.6581 C.2            1 <1>                0.0000
      9 N9          -2.8242   3.9779   0.4796 N.pl3          1 <1>                0.0000
     10 H10         -3.4816   4.4302  -0.0720 H              1 <1>                0.0000
     11 N11         -3.2484  -0.0324   0.7104 N.4            1 <1>                0.0000
     12 H12         -2.3665   0.4546   0.7672 H              1 <1>                0.0000
     13 H13         -3.4592  -0.4515   1.6038 H              1 <1>                0.0000
     14 C14         -3.1635  -1.0812  -0.3146 C.3            1 <1>                0.0000
     15 C15         -2.0576  -2.0705   0.0583 C.3            1 <1>                0.0000
     16 C16         -1.8689  -3.0817  -1.0765 C.3            1 <1>                0.0000
     17 C17         -1.3585  -2.3560  -2.3242 C.3            1 <1>                0.0000
     18 C18         -1.2005  -3.3650  -3.4640 C.3            1 <1>                0.0000
     19 C19         -0.6852  -2.6495  -4.7139 C.3            1 <1>                0.0000
     20 C20          0.6713  -2.0098  -4.4105 C.3            1 <1>                0.0000
     21 C21          0.5129  -0.9978  -3.2745 C.3            1 <1>                0.0000
     22 C22         -0.0044  -1.7097  -2.0225 C.3            1 <1>                0.0000
     23 C23         -0.1711  -0.6850  -0.8952 C.3            1 <1>                0.0000
     24 N24         -0.7952  -1.3459   0.2587 N.am           1 <1>                0.0000
     25 C25         -0.2216  -1.2884   1.4770 C.2            1 <1>                0.0000
     26 O26         -0.7829  -1.7796   2.4369 O.2            1 <1>                0.0000
     27 C27          1.0892  -0.6285   1.6458 C.ar           1 <1>                0.0000
     28 C28          2.1264  -1.2926   2.3053 C.ar           1 <1>                0.0000
     29 C29          3.3477  -0.6769   2.4617 C.ar           1 <1>                0.0000
     30 C30          3.5499   0.6097   1.9617 C.ar           1 <1>                0.0000
     31 C31          2.5148   1.2740   1.3034 C.ar           1 <1>                0.0000
     32 C32          1.2944   0.6579   1.1408 C.ar           1 <1>                0.0000
     33 C33          4.8658   1.2719   2.1307 C.ar           1 <1>                0.0000
     34 C34          5.9040   0.6090   2.7834 C.ar           1 <1>                0.0000
     35 C35          7.1267   1.2300   2.9374 C.ar           1 <1>                0.0000
     36 C36          7.3231   2.5079   2.4454 C.ar           1 <1>                0.0000
     37 C37          6.2966   3.1707   1.7968 C.ar           1 <1>                0.0000
     38 C38          5.0713   2.5575   1.6324 C.ar           1 <1>                0.0000
     39 H39         -6.5458   0.7598   0.1464 H              1 <1>                0.0000
     40 H40         -4.1291   1.3038  -0.6506 H              1 <1>                0.0000
     41 H41         -5.1588   2.7343   1.1397 H              1 <1>                0.0000
     42 H42         -4.4085   1.6824   2.3639 H              1 <1>                0.0000
     43 H43         -1.6745   1.7341   2.4959 H              1 <1>                0.0000
     44 H44         -1.0595   5.2028   0.2043 H              1 <1>                0.0000
     45 H45         -4.1162  -1.6073  -0.3759 H              1 <1>                0.0000
     46 H46         -2.9358  -0.6284  -1.2797 H              1 <1>                0.0000
     47 H47         -2.3288  -2.5932   0.9755 H              1 <1>                0.0000
     48 H48         -1.1442  -3.8374  -0.7734 H              1 <1>                0.0000
     49 H49         -2.8224  -3.5607  -1.2990 H              1 <1>                0.0000
     50 H50         -2.0727  -1.5855  -2.6147 H              1 <1>                0.0000
     51 H51         -0.4904  -4.1375  -3.1691 H              1 <1>                0.0000
     52 H52         -2.1658  -3.8229  -3.6798 H              1 <1>                0.0000
     53 H53         -0.5745  -3.3692  -5.5251 H              1 <1>                0.0000
     54 H54         -1.3943  -1.8758  -5.0084 H              1 <1>                0.0000
     55 H55          1.3794  -2.7830  -4.1125 H              1 <1>                0.0000
     56 H56          1.0410  -1.5017  -5.3012 H              1 <1>                0.0000
     57 H57          1.4782  -0.5398  -3.0590 H              1 <1>                0.0000
     58 H58         -0.1966  -0.2258  -3.5723 H              1 <1>                0.0000
     59 H59          0.7070  -2.4781  -1.7198 H              1 <1>                0.0000
     60 H60          0.8057  -0.2954  -0.6085 H              1 <1>                0.0000
     61 H61         -0.8067   0.1323  -1.2357 H              1 <1>                0.0000
     62 H62          1.9700  -2.2885   2.6928 H              1 <1>                0.0000
     63 H63          4.1495  -1.1899   2.9718 H              1 <1>                0.0000
     64 H64          2.6723   2.2701   0.9170 H              1 <1>                0.0000
     65 H65          0.4932   1.1723   0.6311 H              1 <1>                0.0000
     66 H66          5.7516  -0.3886   3.1682 H              1 <1>                0.0000
     67 H67          7.9316   0.7176   3.4432 H              1 <1>                0.0000
     68 H68          8.2816   2.9902   2.5685 H              1 <1>                0.0000
     69 H69          6.4556   4.1684   1.4151 H              1 <1>                0.0000
     70 H70          4.2705   3.0758   1.1259 H              1 <1>                0.0000
@<TRIPOS>BOND
    1    1    2 2     
    2    2    3 1     
    3    2   39 1     
    4    3    4 1     
    5    3   11 1     
    6    3   40 1     
    7    4    5 1     
    8    4   41 1     
    9    4   42 1     
   10    5    9 1     
   11    5    6 2     
   12    6    7 1     
   13    6   43 1     
   14    7    8 2     
   15    8    9 1     
   16    8   44 1     
   17    9   10 1     
   18   11   12 1     
   19   11   13 1     
   20   11   14 1     
   21   14   15 1     
   22   14   45 1     
   23   14   46 1     
   24   15   24 1     
   25   15   16 1     
   26   15   47 1     
   27   16   17 1     
   28   16   48 1     
   29   16   49 1     
   30   17   22 1     
   31   17   18 1     
   32   17   50 1     
   33   18   19 1     
   34   18   51 1     
   35   18   52 1     
   36   19   20 1     
   37   19   53 1     
   38   19   54 1     
   39   20   21 1     
   40   20   55 1     
   41   20   56 1     
   42   21   22 1     
   43   21   57 1     
   44   21   58 1     
   45   22   23 1     
   46   22   59 1     
   47   23   24 1     
   48   23   60 1     
   49   23   61 1     
   50   24   25 am    
   51   25   26 2     
   52   25   27 1     
   53   27   32 ar    
   54   27   28 ar    
   55   28   29 ar    
   56   28   62 1     
   57   29   30 ar    
   58   29   63 1     
   59   30   31 ar    
   60   30   33 1     
   61   31   32 ar    
   62   31   64 1     
   63   32   65 1     
   64   33   38 ar    
   65   33   34 ar    
   66   34   35 ar    
   67   34   66 1     
   68   35   36 ar    
   69   35   67 1     
   70   36   37 ar    
   71   36   68 1     
   72   37   38 ar    
   73   37   69 1     
   74   38   70 1     
@<TRIPOS>SUBSTRUCTURE
      1 ****           1
@<TRIPOS>SET
DONOR_HYDROGENS      STATIC     ATOMS    <user>   **** ""
3 10 12 13
ATOM$RED        STATIC     ATOMS    COLORGROUP SYSTEM
3 10 12 13
