#       Name:                3XH
#       Creating user name   gbret
#       Creation time:       Thu Sep  8 23:26:08 2016


#       File generated by GOLD software.
#

@<TRIPOS>MOLECULE
3XH
    22    22     1
SMALL
NO_CHARGES


@<TRIPOS>ATOM
      1 O1          -0.1015   4.1171  -1.3546 O.3            1 <1>                0.0000
      2 C2          -0.0830   2.7581  -1.3621 C.ar           1 <1>                0.0000
      3 C3          -0.0794   2.0708  -2.5685 C.ar           1 <1>                0.0000
      4 C4          -0.0606   0.6886  -2.5823 C.ar           1 <1>                0.0000
      5 C5          -0.0459  -0.0175  -1.3966 C.ar           1 <1>                0.0000
      6 C6          -0.0495   0.6647  -0.1790 C.ar           1 <1>                0.0000
      7 C7          -0.0622   2.0598  -0.1667 C.ar           1 <1>                0.0000
      8 C8          -0.0343  -0.0884   1.0934 C.2            1 <1>                0.0000
      9 O9          -0.0374   0.5079   2.1526 O.2            1 <1>                0.0000
     10 N10         -0.0170  -1.4360   1.0787 N.am           1 <1>                0.0000
     11 C11         -0.0019  -2.1821   2.3393 C.3            1 <1>                0.0000
     12 C12          0.0159  -3.6605   2.0479 C.2            1 <1>                0.0000
     13 O13          0.0160  -4.0544   0.8940 O.co2          1 <1>                0.0000
     14 O14          0.0302  -4.4628   2.9659 O.co2          1 <1>                0.0000
     15 H15          0.7765   4.5224  -1.3608 H              1 <1>                0.0000
     16 H16         -0.0915   2.6180  -3.4996 H              1 <1>                0.0000
     17 H17         -0.0579   0.1596  -3.5239 H              1 <1>                0.0000
     18 H18         -0.0320  -1.0973  -1.4109 H              1 <1>                0.0000
     19 H19         -0.0646   2.5932   0.7723 H              1 <1>                0.0000
     20 H20         -0.0145  -1.9118   0.2334 H              1 <1>                0.0000
     21 H21          0.8872  -1.9135   2.9099 H              1 <1>                0.0000
     22 H22         -0.8926  -1.9365   2.9176 H              1 <1>                0.0000
@<TRIPOS>BOND
    1    1    2 1     
    2    1   15 1     
    3    2    7 ar    
    4    2    3 ar    
    5    3    4 ar    
    6    3   16 1     
    7    4    5 ar    
    8    4   17 1     
    9    5    6 ar    
   10    5   18 1     
   11    6    7 ar    
   12    6    8 1     
   13    7   19 1     
   14    8    9 2     
   15    8   10 am    
   16   10   11 1     
   17   10   20 1     
   18   11   12 1     
   19   11   21 1     
   20   11   22 1     
   21   12   13 ar    
   22   12   14 ar    
@<TRIPOS>SUBSTRUCTURE
      1 ****           1
@<TRIPOS>SET
DONOR_HYDROGENS      STATIC     ATOMS    <user>   **** ""
2 15 20
ATOM$RED        STATIC     ATOMS    COLORGROUP SYSTEM
2 15 20
