#       Name:                3XL
#       Creating user name   gbret
#       Creation time:       Thu Sep  8 23:26:20 2016


#       File generated by GOLD software.
#

@<TRIPOS>MOLECULE
3XL
    32    35     1
SMALL
NO_CHARGES


@<TRIPOS>ATOM
      1 O1           0.7600   1.4704  -3.5042 O.3            1 <1>                0.0000
      2 C2           0.7784   0.1119  -3.5117 C.ar           1 <1>                0.0000
      3 C3           0.7822  -0.5767  -4.7141 C.ar           1 <1>                0.0000
      4 C4           0.8009  -1.9586  -4.7204 C.ar           1 <1>                0.0000
      5 C5           0.8165  -2.6621  -3.5289 C.ar           1 <1>                0.0000
      6 C6           0.8134  -1.9886  -2.3241 C.ar           1 <1>                0.0000
      7 C7           0.7994  -0.5959  -2.3064 C.ar           1 <1>                0.0000
      8 C8           0.7961   0.1328  -1.0143 C.ar           1 <1>                0.0000
      9 C9           1.7042   1.1673  -0.7821 C.ar           1 <1>                0.0000
     10 N10          1.7155   1.8232   0.3570 N.ar           1 <1>                0.0000
     11 C11          0.8697   1.5398   1.3415 C.ar           1 <1>                0.0000
     12 N12          0.7029   2.0857   2.5975 N.pl3          1 <1>                0.0000
     13 H13          1.2312   2.8153   2.9574 H              1 <1>                0.0000
     14 C14         -0.3199   1.4502   3.2699 C.ar           1 <1>                0.0000
     15 C15         -0.8748   1.6175   4.5375 C.ar           1 <1>                0.0000
     16 N16         -1.8684   0.8592   4.9409 N.ar           1 <1>                0.0000
     17 C17         -2.3926  -0.0955   4.1751 C.ar           1 <1>                0.0000
     18 C18         -1.8992  -0.3313   2.8942 C.ar           1 <1>                0.0000
     19 C19         -0.8463   0.4515   2.4303 C.ar           1 <1>                0.0000
     20 C20         -0.0742   0.5105   1.1800 C.ar           1 <1>                0.0000
     21 C21         -0.1185  -0.2018  -0.0153 C.ar           1 <1>                0.0000
     22 C22         -3.4753  -0.8888   4.6741 C.1            1 <1>                0.0000
     23 N23         -4.3342  -1.5182   5.0699 N.1            1 <1>                0.0000
     24 H24          1.6379   1.8757  -3.5104 H              1 <1>                0.0000
     25 H25          0.7701  -0.0331  -5.6472 H              1 <1>                0.0000
     26 H26          0.8031  -2.4919  -5.6595 H              1 <1>                0.0000
     27 H27          0.8308  -3.7419  -3.5417 H              1 <1>                0.0000
     28 H28          0.8252  -2.5409  -1.3961 H              1 <1>                0.0000
     29 H29          2.4116   1.4337  -1.5535 H              1 <1>                0.0000
     30 H30         -0.4831   2.3790   5.1956 H              1 <1>                0.0000
     31 H31         -2.3252  -1.1057   2.2736 H              1 <1>                0.0000
     32 H32         -0.8388  -0.9926  -0.1641 H              1 <1>                0.0000
@<TRIPOS>BOND
    1    1    2 1     
    2    1   24 1     
    3    2    7 ar    
    4    2    3 ar    
    5    3    4 ar    
    6    3   25 1     
    7    4    5 ar    
    8    4   26 1     
    9    5    6 ar    
   10    5   27 1     
   11    6    7 ar    
   12    6   28 1     
   13    7    8 1     
   14    8   21 ar    
   15    8    9 ar    
   16    9   10 ar    
   17    9   29 1     
   18   10   11 ar    
   19   11   20 ar    
   20   11   12 1     
   21   12   13 1     
   22   12   14 1     
   23   14   19 ar    
   24   14   15 ar    
   25   15   16 ar    
   26   15   30 1     
   27   16   17 ar    
   28   17   18 ar    
   29   17   22 1     
   30   18   19 ar    
   31   18   31 1     
   32   19   20 1     
   33   20   21 ar    
   34   21   32 1     
   35   22   23 3     
@<TRIPOS>SUBSTRUCTURE
      1 ****           1
@<TRIPOS>SET
DONOR_HYDROGENS      STATIC     ATOMS    <user>   **** ""
2 24 13
ATOM$RED        STATIC     ATOMS    COLORGROUP SYSTEM
2 24 13
