#       Name:                3XM
#       Creating user name   gbret
#       Creation time:       Thu Sep  8 23:26:24 2016


#       File generated by GOLD software.
#

@<TRIPOS>MOLECULE
3XM
    40    41     1
SMALL
NO_CHARGES


@<TRIPOS>ATOM
      1 C1          -1.8418   6.2982   3.1752 C.3            1 <1>                0.0000
      2 C2          -1.8210   4.7683   3.1668 C.3            1 <1>                0.0000
      3 C3          -1.1049   4.2749   1.9080 C.3            1 <1>                0.0000
      4 C4          -1.0841   2.7451   1.8996 C.3            1 <1>                0.0000
      5 C5          -0.3680   2.2517   0.6408 C.3            1 <1>                0.0000
      6 C6          -0.3476   0.7448   0.6325 C.2            1 <1>                0.0000
      7 O7          -0.8563   0.1257   1.5447 O.2            1 <1>                0.0000
      8 C8           0.2646   0.0513  -0.4385 C.2            1 <1>                0.0000
      9 C9           0.2860  -1.3535  -0.4623 C.2            1 <1>                0.0000
     10 O10         -0.2770  -2.0684   0.5358 O.co2          1 <1>                0.0000
     11 C11          0.9079  -2.0028  -1.5520 C.2            1 <1>                0.0000
     12 C12          1.4706  -1.2633  -2.5509 C.2            1 <1>                0.0000
     13 N13          1.4467   0.0917  -2.5221 N.am           1 <1>                0.0000
     14 H14          1.8556   0.5889  -3.2476 H              1 <1>                0.0000
     15 C15          0.8633   0.7619  -1.5117 C.2            1 <1>                0.0000
     16 O16          0.8575   1.9805  -1.5130 O.2            1 <1>                0.0000
     17 C17          0.9495  -3.4852  -1.6096 C.ar           1 <1>                0.0000
     18 C18         -0.2323  -4.2123  -1.7390 C.ar           1 <1>                0.0000
     19 C19         -0.1905  -5.5900  -1.7928 C.ar           1 <1>                0.0000
     20 C20          1.0271  -6.2522  -1.7178 C.ar           1 <1>                0.0000
     21 O21          1.0652  -7.6097  -1.7711 O.3            1 <1>                0.0000
     22 C22          2.2059  -5.5307  -1.5890 C.ar           1 <1>                0.0000
     23 C23          2.1708  -4.1526  -1.5404 C.ar           1 <1>                0.0000
     24 H24         -0.8192   6.6755   3.1675 H              1 <1>                0.0000
     25 H25         -2.3690   6.6592   2.2922 H              1 <1>                0.0000
     26 H26         -2.3520   6.6497   4.0720 H              1 <1>                0.0000
     27 H27         -1.2938   4.4073   4.0499 H              1 <1>                0.0000
     28 H28         -2.8436   4.3910   3.1746 H              1 <1>                0.0000
     29 H29         -1.6321   4.6360   1.0250 H              1 <1>                0.0000
     30 H30         -0.0823   4.6522   1.9003 H              1 <1>                0.0000
     31 H31         -0.5570   2.3840   2.7827 H              1 <1>                0.0000
     32 H32         -2.1067   2.3678   1.9073 H              1 <1>                0.0000
     33 H33         -0.8952   2.6127  -0.2423 H              1 <1>                0.0000
     34 H34          0.6546   2.6289   0.6331 H              1 <1>                0.0000
     35 H35          1.9445  -1.7671  -3.3804 H              1 <1>                0.0000
     36 H36         -1.1800  -3.6976  -1.7966 H              1 <1>                0.0000
     37 H37         -1.1060  -6.1540  -1.8930 H              1 <1>                0.0000
     38 H38          1.1503  -7.9659  -2.6661 H              1 <1>                0.0000
     39 H39          3.1517  -6.0487  -1.5306 H              1 <1>                0.0000
     40 H40          3.0884  -3.5917  -1.4406 H              1 <1>                0.0000
@<TRIPOS>BOND
    1    1    2 1     
    2    1   24 1     
    3    1   25 1     
    4    1   26 1     
    5    2    3 1     
    6    2   27 1     
    7    2   28 1     
    8    3    4 1     
    9    3   29 1     
   10    3   30 1     
   11    4    5 1     
   12    4   31 1     
   13    4   32 1     
   14    5    6 1     
   15    5   33 1     
   16    5   34 1     
   17    6    7 2     
   18    6    8 1     
   19    8   15 1     
   20    8    9 2     
   21    9   10 ar    
   22    9   11 1     
   23   11   12 2     
   24   11   17 1     
   25   12   13 1     
   26   12   35 1     
   27   13   14 1     
   28   13   15 am    
   29   15   16 2     
   30   17   23 ar    
   31   17   18 ar    
   32   18   19 ar    
   33   18   36 1     
   34   19   20 ar    
   35   19   37 1     
   36   20   21 1     
   37   20   22 ar    
   38   21   38 1     
   39   22   23 ar    
   40   22   39 1     
   41   23   40 1     
@<TRIPOS>SUBSTRUCTURE
      1 ****           1
@<TRIPOS>SET
DONOR_HYDROGENS      STATIC     ATOMS    <user>   **** ""
2 14 38
ATOM$RED        STATIC     ATOMS    COLORGROUP SYSTEM
2 14 38
