#       Name:                417
#       Creating user name   gbret
#       Creation time:       Thu Sep  8 23:34:34 2016


#       File generated by GOLD software.
#

@<TRIPOS>MOLECULE
417
    50    53     1
SMALL
NO_CHARGES


@<TRIPOS>ATOM
      1 N1           1.9864   1.2644  -1.7383 N.4            1 <1>                0.0000
      2 H2           2.0456   0.2572  -1.7519 H              1 <1>                0.0000
      3 H3           2.9157   1.6564  -1.7670 H              1 <1>                0.0000
      4 H4           1.4627   1.5814  -2.5404 H              1 <1>                0.0000
      5 C5           1.3096   1.6985  -0.5089 C.3            1 <1>                0.0000
      6 C6          -0.1595   1.2740  -0.5584 C.3            1 <1>                0.0000
      7 C7          -0.2467  -0.2488  -0.6781 C.3            1 <1>                0.0000
      8 C8           0.4304  -0.8951   0.5322 C.3            1 <1>                0.0000
      9 C9           1.8995  -0.4706   0.5817 C.3            1 <1>                0.0000
     10 C10          1.9866   1.0522   0.7014 C.3            1 <1>                0.0000
     11 C11          3.4336   1.4703   0.7502 C.ar           1 <1>                0.0000
     12 C12          4.3145   1.0243  -0.2174 C.ar           1 <1>                0.0000
     13 C13          5.6433   1.4072  -0.1733 C.ar           1 <1>                0.0000
     14 F14          6.5039   0.9711  -1.1191 F              1 <1>                0.0000
     15 C15          6.0915   2.2390   0.8418 C.ar           1 <1>                0.0000
     16 F16          7.3888   2.6138   0.8855 F              1 <1>                0.0000
     17 C17          5.2092   2.6853   1.8095 C.ar           1 <1>                0.0000
     18 C18          3.8787   2.3052   1.7607 C.ar           1 <1>                0.0000
     19 F19          3.0167   2.7411   2.7052 F              1 <1>                0.0000
     20 N20         -1.6572  -0.6563  -0.7257 N.4            1 <1>                0.0000
     21 H21         -2.1268  -0.1516  -1.4624 H              1 <1>                0.0000
     22 C22         -2.2970  -0.3488   0.5603 C.3            1 <1>                0.0000
     23 C23         -3.8203  -0.4841   0.4289 C.3            1 <1>                0.0000
     24 N24         -4.1074  -1.7813  -0.1843 N.pl3          1 <1>                0.0000
     25 C25         -3.1749  -2.5307  -0.8309 C.2            1 <1>                0.0000
     26 C26         -1.7394  -2.1024  -0.9944 C.3            1 <1>                0.0000
     27 N27         -3.7636  -3.6106  -1.2398 N.2            1 <1>                0.0000
     28 N28         -5.0057  -3.5812  -0.8929 N.2            1 <1>                0.0000
     29 C29         -5.2577  -2.4727  -0.2431 C.2            1 <1>                0.0000
     30 C30         -6.5864  -2.0525   0.3306 C.3            1 <1>                0.0000
     31 F31         -7.4455  -3.1557   0.3741 F              1 <1>                0.0000
     32 F32         -6.3993  -1.5558   1.6251 F              1 <1>                0.0000
     33 F33         -7.1477  -1.0557  -0.4747 F              1 <1>                0.0000
     34 H34          1.3716   2.7834  -0.4236 H              1 <1>                0.0000
     35 H35         -0.6617   1.5961   0.3538 H              1 <1>                0.0000
     36 H36         -0.6419   1.7344  -1.4207 H              1 <1>                0.0000
     37 H37          0.2555  -0.5709  -1.5903 H              1 <1>                0.0000
     38 H38         -0.0718  -0.5730   1.4444 H              1 <1>                0.0000
     39 H39          0.3683  -1.9800   0.4470 H              1 <1>                0.0000
     40 H40          2.3818  -0.9310   1.4440 H              1 <1>                0.0000
     41 H41          2.4017  -0.7927  -0.3305 H              1 <1>                0.0000
     42 H42          1.4844   1.3743   1.6137 H              1 <1>                0.0000
     43 H43          3.9653   0.3765  -1.0079 H              1 <1>                0.0000
     44 H44          5.5572   3.3331   2.6005 H              1 <1>                0.0000
     45 H45         -1.9359  -1.0423   1.3198 H              1 <1>                0.0000
     46 H46         -2.0478   0.6708   0.8543 H              1 <1>                0.0000
     47 H47         -4.2813  -0.4326   1.4152 H              1 <1>                0.0000
     48 H48         -4.2082   0.3157  -0.2021 H              1 <1>                0.0000
     49 H49         -1.4095  -2.3030  -2.0138 H              1 <1>                0.0000
     50 H50         -1.1106  -2.6467  -0.2899 H              1 <1>                0.0000
@<TRIPOS>BOND
    1    1    2 1     
    2    1    3 1     
    3    1    4 1     
    4    1    5 1     
    5    5   10 1     
    6    5    6 1     
    7    5   34 1     
    8    6    7 1     
    9    6   35 1     
   10    6   36 1     
   11    7    8 1     
   12    7   20 1     
   13    7   37 1     
   14    8    9 1     
   15    8   38 1     
   16    8   39 1     
   17    9   10 1     
   18    9   40 1     
   19    9   41 1     
   20   10   11 1     
   21   10   42 1     
   22   11   18 ar    
   23   11   12 ar    
   24   12   13 ar    
   25   12   43 1     
   26   13   14 1     
   27   13   15 ar    
   28   15   16 1     
   29   15   17 ar    
   30   17   18 ar    
   31   17   44 1     
   32   18   19 1     
   33   20   21 1     
   34   20   26 1     
   35   20   22 1     
   36   22   23 1     
   37   22   45 1     
   38   22   46 1     
   39   23   24 1     
   40   23   47 1     
   41   23   48 1     
   42   24   29 1     
   43   24   25 1     
   44   25   26 1     
   45   25   27 2     
   46   26   49 1     
   47   26   50 1     
   48   27   28 1     
   49   28   29 2     
   50   29   30 1     
   51   30   31 1     
   52   30   32 1     
   53   30   33 1     
@<TRIPOS>SUBSTRUCTURE
      1 ****           1
@<TRIPOS>SET
DONOR_HYDROGENS      STATIC     ATOMS    <user>   **** ""
4 2 3 4 21
ATOM$RED        STATIC     ATOMS    COLORGROUP SYSTEM
4 2 3 4 21
