#       Name:                425
#       Creating user name   gbret
#       Creation time:       Thu Sep  8 23:36:57 2016


#       File generated by GOLD software.
#

@<TRIPOS>MOLECULE
425
   170   175     1
SMALL
NO_CHARGES


@<TRIPOS>ATOM
      1 C1           9.4265  -1.7097  -3.8789 C.3            1 <1>                0.0000
      2 C2          10.6208  -1.4467  -2.9984 C.2            1 <1>                0.0000
      3 O3          11.7039  -1.2231  -3.4964 O.2            1 <1>                0.0000
      4 N4          10.4855  -1.4599  -1.6575 N.am           1 <1>                0.0000
      5 C5          11.6466  -1.2042  -0.8015 C.3            1 <1>                0.0000
      6 C6          11.8219   0.3060  -0.6144 C.3            1 <1>                0.0000
      7 O7          11.9530   0.9339  -1.8913 O.3            1 <1>                0.0000
      8 C8          10.5928   0.8659   0.1082 C.3            1 <1>                0.0000
      9 C9          10.4152   0.1321   1.4400 C.3            1 <1>                0.0000
     10 O10          9.2382   0.6102   2.0943 O.3            1 <1>                0.0000
     11 C11          8.0256   0.3145   1.3984 C.3            1 <1>                0.0000
     12 C12          6.8434   0.9309   2.1491 C.3            1 <1>                0.0000
     13 C13          5.5647   0.6190   1.4152 C.2            1 <1>                0.0000
     14 C14          4.4632   0.0208   1.9258 C.2            1 <1>                0.0000
     15 N15          3.5699  -0.0525   0.9120 N.pl3          1 <1>                0.0000
     16 C16          2.2244  -0.6263   0.9933 C.3            1 <1>                0.0000
     17 C17          1.1992   0.4097   0.5280 C.3            1 <1>                0.0000
     18 N18         -0.1500  -0.1657   0.6095 N.4            1 <1>                0.0000
     19 H19         -0.1809  -1.0265   0.0840 H              1 <1>                0.0000
     20 C20         -0.4823  -0.4375   2.0144 C.3            1 <1>                0.0000
     21 C21         -1.8355  -1.1476   2.0902 C.3            1 <1>                0.0000
     22 N22         -2.1845  -1.3849   3.4931 N.pl3          1 <1>                0.0000
     23 C23         -3.3285  -0.9961   4.1021 C.2            1 <1>                0.0000
     24 C24         -3.2351  -1.4181   5.3848 C.2            1 <1>                0.0000
     25 C25         -4.2601  -1.2291   6.4732 C.3            1 <1>                0.0000
     26 C26         -4.6228  -2.5887   7.0738 C.3            1 <1>                0.0000
     27 O27         -5.5948  -2.4096   8.1059 O.3            1 <1>                0.0000
     28 C28         -6.0045  -3.6250   8.7359 C.3            1 <1>                0.0000
     29 C29         -7.1310  -3.3304   9.7297 C.3            1 <1>                0.0000
     30 C30         -8.3379  -2.7707   8.9704 C.3            1 <1>                0.0000
     31 O31         -7.9824  -1.5312   8.3547 O.3            1 <1>                0.0000
     32 C32         -8.7604  -3.7751   7.8938 C.3            1 <1>                0.0000
     33 N33         -9.8672  -3.2182   7.1121 N.am           1 <1>                0.0000
     34 C34        -11.1350  -3.3511   7.5496 C.2            1 <1>                0.0000
     35 C35        -12.2735  -2.7782   6.7454 C.3            1 <1>                0.0000
     36 O36        -11.3596  -3.9317   8.5904 O.2            1 <1>                0.0000
     37 C37         -7.5709  -4.0525   6.9708 C.3            1 <1>                0.0000
     38 O38         -6.4732  -4.5412   7.7444 O.3            1 <1>                0.0000
     39 C39         -7.9672  -5.1003   5.9287 C.3            1 <1>                0.0000
     40 O40         -9.0657  -4.6120   5.1561 O.3            1 <1>                0.0000
     41 C41         -6.7783  -5.3774   5.0064 C.3            1 <1>                0.0000
     42 O42         -5.6798  -5.8657   5.7790 O.3            1 <1>                0.0000
     43 C43         -7.1746  -6.4252   3.9643 C.3            1 <1>                0.0000
     44 O44         -6.1049  -6.5989   3.0328 O.3            1 <1>                0.0000
     45 C45         -4.8345  -4.2311   9.4672 C.2            1 <1>                0.0000
     46 O46         -3.7502  -3.6739   9.4505 O.co2          1 <1>                0.0000
     47 O47         -4.9723  -5.2787  10.0755 O.co2          1 <1>                0.0000
     48 N48         -2.0540  -2.0364   5.4961 N.2            1 <1>                0.0000
     49 N49         -1.4581  -2.0041   4.3566 N.2            1 <1>                0.0000
     50 C50         -1.1219   0.7839   0.0513 C.3            1 <1>                0.0000
     51 C51         -0.8503   0.9727  -1.4425 C.3            1 <1>                0.0000
     52 N52         -1.7857   1.9594  -1.9880 N.pl3          1 <1>                0.0000
     53 C53         -1.4489   3.0801  -2.6675 C.2            1 <1>                0.0000
     54 C54         -2.6132   3.6942  -2.9826 C.2            1 <1>                0.0000
     55 C55         -2.7747   4.9854  -3.7427 C.3            1 <1>                0.0000
     56 C56         -3.6947   4.7584  -4.9439 C.3            1 <1>                0.0000
     57 O57         -3.8479   5.9828  -5.6647 O.3            1 <1>                0.0000
     58 C58         -4.6933   5.8799  -6.8122 C.3            1 <1>                0.0000
     59 C59         -4.6844   7.2081  -7.5736 C.3            1 <1>                0.0000
     60 C60         -3.2632   7.4950  -8.0676 C.3            1 <1>                0.0000
     61 O61         -2.3886   7.6440  -6.9473 O.3            1 <1>                0.0000
     62 C62         -2.7899   6.3245  -8.9349 C.3            1 <1>                0.0000
     63 N63         -1.4044   6.5533  -9.3523 N.am           1 <1>                0.0000
     64 C64         -1.1440   7.2987 -10.4445 C.2            1 <1>                0.0000
     65 C65          0.2813   7.5341 -10.8739 C.3            1 <1>                0.0000
     66 O66         -2.0566   7.7801 -11.0819 O.2            1 <1>                0.0000
     67 C67         -2.8719   5.0305  -8.1210 C.3            1 <1>                0.0000
     68 O68         -4.2132   4.8396  -7.6662 O.3            1 <1>                0.0000
     69 C69         -2.4579   3.8481  -8.9992 C.3            1 <1>                0.0000
     70 O70         -1.1171   4.0398  -9.4550 O.3            1 <1>                0.0000
     71 C71         -2.5399   2.5550  -8.1855 C.3            1 <1>                0.0000
     72 O72         -3.8807   2.3633  -7.7298 O.3            1 <1>                0.0000
     73 C73         -2.1258   1.3726  -9.0638 C.3            1 <1>                0.0000
     74 O74         -2.0901   0.1822  -8.2741 O.3            1 <1>                0.0000
     75 C75         -6.0994   5.5612  -6.3735 C.2            1 <1>                0.0000
     76 O76         -6.3540   5.4340  -5.1880 O.co2          1 <1>                0.0000
     77 O77         -6.9823   5.4307  -7.2041 O.co2          1 <1>                0.0000
     78 N78         -3.5924   2.9293  -2.4870 N.2            1 <1>                0.0000
     79 N79         -3.0693   1.9065  -1.9082 N.2            1 <1>                0.0000
     80 N80          4.1053   0.4690  -0.1359 N.2            1 <1>                0.0000
     81 N81          5.2929   0.8843   0.1325 N.2            1 <1>                0.0000
     82 O82         10.2888  -1.2703   1.1966 O.3            1 <1>                0.0000
     83 C83         11.4283  -1.8580   0.5654 C.3            1 <1>                0.0000
     84 C84         11.1925  -3.3585   0.3815 C.3            1 <1>                0.0000
     85 O85         12.3321  -3.9459  -0.2496 O.3            1 <1>                0.0000
     86 C86         10.9730  -4.0114   1.7477 C.3            1 <1>                0.0000
     87 O87          9.8334  -3.4240   2.3788 O.3            1 <1>                0.0000
     88 C88         10.7372  -5.5119   1.5638 C.3            1 <1>                0.0000
     89 O89         10.6481  -6.1405   2.8440 O.3            1 <1>                0.0000
     90 C90         11.6149   0.3842   2.3165 C.2            1 <1>                0.0000
     91 O91         11.4701   0.8838   3.4192 O.co2          1 <1>                0.0000
     92 O92         12.7303   0.0884   1.9230 O.co2          1 <1>                0.0000
     93 H93          9.7279  -1.6579  -4.9251 H              1 <1>                0.0000
     94 H94          9.0281  -2.7013  -3.6642 H              1 <1>                0.0000
     95 H95          8.6594  -0.9601  -3.6843 H              1 <1>                0.0000
     96 H96          9.6193  -1.6387  -1.2592 H              1 <1>                0.0000
     97 H97         12.5403  -1.6208  -1.2660 H              1 <1>                0.0000
     98 H98         12.7151   0.4985  -0.0200 H              1 <1>                0.0000
     99 H99         12.0676   1.8931  -1.8480 H              1 <1>                0.0000
    100 H100        10.7335   1.9305   0.2948 H              1 <1>                0.0000
    101 H101         9.7076   0.7175  -0.5103 H              1 <1>                0.0000
    102 H102         8.0736   0.7304   0.3920 H              1 <1>                0.0000
    103 H103         7.8949  -0.7660   1.3392 H              1 <1>                0.0000
    104 H104         6.7955   0.5150   3.1555 H              1 <1>                0.0000
    105 H105         6.9742   2.0114   2.2083 H              1 <1>                0.0000
    106 H106         4.3251  -0.3282   2.9385 H              1 <1>                0.0000
    107 H107         2.1660  -1.5076   0.3546 H              1 <1>                0.0000
    108 H108         2.0121  -0.9100   2.0241 H              1 <1>                0.0000
    109 H109         1.2575   1.2909   1.1668 H              1 <1>                0.0000
    110 H110         1.4115   0.6934  -0.5028 H              1 <1>                0.0000
    111 H111         0.2867  -1.0732   2.4532 H              1 <1>                0.0000
    112 H112        -0.5340   0.5024   2.5639 H              1 <1>                0.0000
    113 H113        -2.5996  -0.5240   1.6262 H              1 <1>                0.0000
    114 H114        -1.7757  -2.1006   1.5644 H              1 <1>                0.0000
    115 H115        -4.1506  -0.4570   3.6549 H              1 <1>                0.0000
    116 H116        -3.8493  -0.5860   7.2515 H              1 <1>                0.0000
    117 H117        -5.1539  -0.7669   6.0542 H              1 <1>                0.0000
    118 H118        -5.0336  -3.2318   6.2955 H              1 <1>                0.0000
    119 H119        -3.7290  -3.0510   7.4928 H              1 <1>                0.0000
    120 H120        -7.4164  -4.2503  10.2400 H              1 <1>                0.0000
    121 H121        -6.7892  -2.5980  10.4611 H              1 <1>                0.0000
    122 H122        -9.1627  -2.6097   9.6645 H              1 <1>                0.0000
    123 H123        -7.6975  -0.8495   8.9786 H              1 <1>                0.0000
    124 H124        -9.0797  -4.7036   8.3671 H              1 <1>                0.0000
    125 H125        -9.6875  -2.7538   6.2796 H              1 <1>                0.0000
    126 H126       -11.8800  -2.2975   5.8498 H              1 <1>                0.0000
    127 H127       -12.9548  -3.5792   6.4584 H              1 <1>                0.0000
    128 H128       -12.8093  -2.0435   7.3465 H              1 <1>                0.0000
    129 H129        -7.2789  -3.1310   6.4672 H              1 <1>                0.0000
    130 H130        -8.2586  -6.0218   6.4326 H              1 <1>                0.0000
    131 H131        -8.8774  -3.7921   4.6792 H              1 <1>                0.0000
    132 H132        -6.4869  -4.4559   4.5025 H              1 <1>                0.0000
    133 H133        -5.8680  -6.6856   6.2560 H              1 <1>                0.0000
    134 H134        -7.3805  -7.3728   4.4620 H              1 <1>                0.0000
    135 H135        -8.0670  -6.0915   3.4347 H              1 <1>                0.0000
    136 H136        -6.2870  -7.2504   2.3418 H              1 <1>                0.0000
    137 H137        -2.1307   0.3956   0.1910 H              1 <1>                0.0000
    138 H138        -1.0276   1.7424   0.5617 H              1 <1>                0.0000
    139 H139         0.1718   1.3237  -1.5845 H              1 <1>                0.0000
    140 H140        -0.9830   0.0220  -1.9589 H              1 <1>                0.0000
    141 H141        -0.4517   3.4170  -2.9094 H              1 <1>                0.0000
    142 H142        -3.2110   5.7401  -3.0884 H              1 <1>                0.0000
    143 H143        -1.7998   5.3263  -4.0911 H              1 <1>                0.0000
    144 H144        -3.2584   4.0037  -5.5983 H              1 <1>                0.0000
    145 H145        -4.6697   4.4175  -4.5956 H              1 <1>                0.0000
    146 H146        -5.3604   7.1436  -8.4262 H              1 <1>                0.0000
    147 H147        -5.0085   8.0102  -6.9105 H              1 <1>                0.0000
    148 H148        -3.2601   8.4118  -8.6570 H              1 <1>                0.0000
    149 H149        -2.6334   8.3643  -6.3504 H              1 <1>                0.0000
    150 H150        -3.4269   6.2429  -9.8157 H              1 <1>                0.0000
    151 H151        -0.6744   6.1683  -8.8426 H              1 <1>                0.0000
    152 H152         0.9568   7.0272 -10.1848 H              1 <1>                0.0000
    153 H153         0.4271   7.1415 -11.8803 H              1 <1>                0.0000
    154 H154         0.4908   8.6037 -10.8672 H              1 <1>                0.0000
    155 H155        -2.2032   5.0978  -7.2628 H              1 <1>                0.0000
    156 H156        -3.1270   3.7807  -9.8570 H              1 <1>                0.0000
    157 H157        -0.4659   4.1086  -8.7435 H              1 <1>                0.0000
    158 H158        -1.8707   2.6224  -7.3278 H              1 <1>                0.0000
    159 H159        -4.5319   2.2945  -8.4413 H              1 <1>                0.0000
    160 H160        -2.8465   1.2507  -9.8724 H              1 <1>                0.0000
    161 H161        -1.1374   1.5602  -9.4833 H              1 <1>                0.0000
    162 H162        -1.8345  -0.6094  -8.7672 H              1 <1>                0.0000
    163 H163        12.3094  -1.7019   1.1879 H              1 <1>                0.0000
    164 H164        10.3117  -3.5142  -0.2413 H              1 <1>                0.0000
    165 H165        13.1539  -3.8453   0.2501 H              1 <1>                0.0000
    166 H166        11.8538  -3.8557   2.3706 H              1 <1>                0.0000
    167 H167         9.0116  -3.5246   1.8791 H              1 <1>                0.0000
    168 H168         9.8079  -5.6693   1.0163 H              1 <1>                0.0000
    169 H169        11.5665  -5.9441   1.0038 H              1 <1>                0.0000
    170 H170        10.4987  -7.0950   2.8040 H              1 <1>                0.0000
@<TRIPOS>BOND
    1    1    2 1     
    2    1   93 1     
    3    1   94 1     
    4    1   95 1     
    5    2    3 2     
    6    2    4 am    
    7    4    5 1     
    8    4   96 1     
    9    5   83 1     
   10    5    6 1     
   11    5   97 1     
   12    6    7 1     
   13    6    8 1     
   14    6   98 1     
   15    7   99 1     
   16    8    9 1     
   17    8  100 1     
   18    8  101 1     
   19    9   10 1     
   20    9   82 1     
   21    9   90 1     
   22   10   11 1     
   23   11   12 1     
   24   11  102 1     
   25   11  103 1     
   26   12   13 1     
   27   12  104 1     
   28   12  105 1     
   29   13   81 1     
   30   13   14 2     
   31   14   15 1     
   32   14  106 1     
   33   15   16 1     
   34   15   80 1     
   35   16   17 1     
   36   16  107 1     
   37   16  108 1     
   38   17   18 1     
   39   17  109 1     
   40   17  110 1     
   41   18   19 1     
   42   18   20 1     
   43   18   50 1     
   44   20   21 1     
   45   20  111 1     
   46   20  112 1     
   47   21   22 1     
   48   21  113 1     
   49   21  114 1     
   50   22   49 1     
   51   22   23 1     
   52   23   24 2     
   53   23  115 1     
   54   24   25 1     
   55   24   48 1     
   56   25   26 1     
   57   25  116 1     
   58   25  117 1     
   59   26   27 1     
   60   26  118 1     
   61   26  119 1     
   62   27   28 1     
   63   28   38 1     
   64   28   29 1     
   65   28   45 1     
   66   29   30 1     
   67   29  120 1     
   68   29  121 1     
   69   30   31 1     
   70   30   32 1     
   71   30  122 1     
   72   31  123 1     
   73   32   33 1     
   74   32   37 1     
   75   32  124 1     
   76   33   34 am    
   77   33  125 1     
   78   34   35 1     
   79   34   36 2     
   80   35  126 1     
   81   35  127 1     
   82   35  128 1     
   83   37   38 1     
   84   37   39 1     
   85   37  129 1     
   86   39   40 1     
   87   39   41 1     
   88   39  130 1     
   89   40  131 1     
   90   41   42 1     
   91   41   43 1     
   92   41  132 1     
   93   42  133 1     
   94   43   44 1     
   95   43  134 1     
   96   43  135 1     
   97   44  136 1     
   98   45   46 ar    
   99   45   47 ar    
  100   48   49 2     
  101   50   51 1     
  102   50  137 1     
  103   50  138 1     
  104   51   52 1     
  105   51  139 1     
  106   51  140 1     
  107   52   79 1     
  108   52   53 1     
  109   53   54 2     
  110   53  141 1     
  111   54   55 1     
  112   54   78 1     
  113   55   56 1     
  114   55  142 1     
  115   55  143 1     
  116   56   57 1     
  117   56  144 1     
  118   56  145 1     
  119   57   58 1     
  120   58   68 1     
  121   58   59 1     
  122   58   75 1     
  123   59   60 1     
  124   59  146 1     
  125   59  147 1     
  126   60   61 1     
  127   60   62 1     
  128   60  148 1     
  129   61  149 1     
  130   62   63 1     
  131   62   67 1     
  132   62  150 1     
  133   63   64 am    
  134   63  151 1     
  135   64   65 1     
  136   64   66 2     
  137   65  152 1     
  138   65  153 1     
  139   65  154 1     
  140   67   68 1     
  141   67   69 1     
  142   67  155 1     
  143   69   70 1     
  144   69   71 1     
  145   69  156 1     
  146   70  157 1     
  147   71   72 1     
  148   71   73 1     
  149   71  158 1     
  150   72  159 1     
  151   73   74 1     
  152   73  160 1     
  153   73  161 1     
  154   74  162 1     
  155   75   76 ar    
  156   75   77 ar    
  157   78   79 2     
  158   80   81 2     
  159   82   83 1     
  160   83   84 1     
  161   83  163 1     
  162   84   85 1     
  163   84   86 1     
  164   84  164 1     
  165   85  165 1     
  166   86   87 1     
  167   86   88 1     
  168   86  166 1     
  169   87  167 1     
  170   88   89 1     
  171   88  168 1     
  172   88  169 1     
  173   89  170 1     
  174   90   91 ar    
  175   90   92 ar    
@<TRIPOS>SUBSTRUCTURE
      1 ****           1
@<TRIPOS>SET
DONOR_HYDROGENS      STATIC     ATOMS    <user>   **** ""
16 96 99 19 123 125 131 133 136 149 151 157 159 162 165 167 170
ATOM$RED        STATIC     ATOMS    COLORGROUP SYSTEM
16 96 99 19 123 125 131 133 136 149 151 157 159 162 165 167 170
