#       Name:                42A
#       Creating user name   gbret
#       Creation time:       Thu Sep  8 23:37:19 2016


#       File generated by GOLD software.
#

@<TRIPOS>MOLECULE
42A
    16    17     1
SMALL
NO_CHARGES


@<TRIPOS>ATOM
      1 N1          -1.0657  -3.7886  -0.0054 N.1            1 <1>                0.0000
      2 C2          -1.0811  -2.6528   0.0008 C.1            1 <1>                0.0000
      3 C3          -1.1005  -1.2209   0.0087 C.2            1 <1>                0.0000
      4 C4          -2.2025  -0.4193   0.0295 C.2            1 <1>                0.0000
      5 N5          -1.8209   0.8844   0.0315 N.pl3          1 <1>                0.0000
      6 H6          -2.4306   1.6388   0.0453 H              1 <1>                0.0000
      7 C7          -0.4482   0.9854   0.0119 C.ar           1 <1>                0.0000
      8 N8           0.3819   2.0204   0.0058 N.ar           1 <1>                0.0000
      9 C9           1.6879   1.8592  -0.0142 C.ar           1 <1>                0.0000
     10 C10          2.2625   0.5980  -0.0304 C.ar           1 <1>                0.0000
     11 C11          1.4462  -0.5187  -0.0250 C.ar           1 <1>                0.0000
     12 C12          0.0667  -0.3222   0.0024 C.ar           1 <1>                0.0000
     13 H13         -3.2246  -0.7679   0.0422 H              1 <1>                0.0000
     14 H14          2.3268   2.7299  -0.0185 H              1 <1>                0.0000
     15 H15          3.3368   0.4883  -0.0475 H              1 <1>                0.0000
     16 H16          1.8657  -1.5138  -0.0376 H              1 <1>                0.0000
@<TRIPOS>BOND
    1    1    2 3     
    2    2    3 1     
    3    3   12 1     
    4    3    4 2     
    5    4    5 1     
    6    4   13 1     
    7    5    6 1     
    8    5    7 1     
    9    7   12 ar    
   10    7    8 ar    
   11    8    9 ar    
   12    9   10 ar    
   13    9   14 1     
   14   10   11 ar    
   15   10   15 1     
   16   11   12 ar    
   17   11   16 1     
@<TRIPOS>SUBSTRUCTURE
      1 ****           1
@<TRIPOS>SET
DONOR_HYDROGENS      STATIC     ATOMS    <user>   **** ""
1 6
ATOM$RED        STATIC     ATOMS    COLORGROUP SYSTEM
1 6
