#       Name:                43B
#       Creating user name   gbret
#       Creation time:       Thu Sep  8 23:39:36 2016


#       File generated by GOLD software.
#

@<TRIPOS>MOLECULE
43B
    78    83     1
SMALL
NO_CHARGES


@<TRIPOS>ATOM
      1 O1           5.0935  -0.3612  -6.6768 O.2            1 <1>                0.0000
      2 N2           4.1945  -0.9475  -6.1010 N.pl3          1 <1>                0.0000
      3 O3           4.3576  -2.0951  -5.7268 O.2            1 <1>                0.0000
      4 C4           2.9061  -0.2636  -5.8507 C.ar           1 <1>                0.0000
      5 C5           1.7205  -0.9657  -5.9467 C.ar           1 <1>                0.0000
      6 C6           0.5164  -0.3276  -5.7130 C.ar           1 <1>                0.0000
      7 C7           0.4946   1.0152  -5.3825 C.ar           1 <1>                0.0000
      8 C8           1.6761   1.7231  -5.2848 C.ar           1 <1>                0.0000
      9 C9           2.8881   1.0836  -5.5134 C.ar           1 <1>                0.0000
     10 N10          4.0852   1.7965  -5.4150 N.pl3          1 <1>                0.0000
     11 C11          4.0593   3.2451  -5.1982 C.3            1 <1>                0.0000
     12 C12          5.4925   3.7761  -5.1286 C.3            1 <1>                0.0000
     13 S13          5.4605   5.5698  -4.8601 S.3            1 <1>                0.0000
     14 C14          7.1700   5.9935  -4.8085 C.ar           1 <1>                0.0000
     15 C15          8.1370   5.0081  -4.9683 C.ar           1 <1>                0.0000
     16 C16          9.4757   5.3438  -4.9272 C.ar           1 <1>                0.0000
     17 C17          9.8548   6.6588  -4.7273 C.ar           1 <1>                0.0000
     18 C18          8.8954   7.6419  -4.5674 C.ar           1 <1>                0.0000
     19 C19          7.5547   7.3146  -4.6135 C.ar           1 <1>                0.0000
     20 S20         -0.9937  -1.2269  -5.8371 S.o2           1 <1>                0.0000
     21 O21         -2.0106  -0.2695  -6.0987 O.2            1 <1>                0.0000
     22 O22         -0.7321  -2.3349  -6.6875 O.2            1 <1>                0.0000
     23 N23         -1.3157  -1.8535  -4.3384 N.am           1 <1>                0.0000
     24 C24         -1.5750  -1.0285  -3.3047 C.2            1 <1>                0.0000
     25 O25         -1.5724   0.1756  -3.4724 O.2            1 <1>                0.0000
     26 C26         -1.8621  -1.5873  -1.9681 C.ar           1 <1>                0.0000
     27 C27         -1.8595  -2.9710  -1.7735 C.ar           1 <1>                0.0000
     28 C28         -2.1267  -3.4907  -0.5273 C.ar           1 <1>                0.0000
     29 C29         -2.4007  -2.6363   0.5413 C.ar           1 <1>                0.0000
     30 C30         -2.4041  -1.2545   0.3480 C.ar           1 <1>                0.0000
     31 C31         -2.1310  -0.7325  -0.8960 C.ar           1 <1>                0.0000
     32 C32         -2.6889  -3.1972   1.8829 C.ar           1 <1>                0.0000
     33 C33         -2.6796  -4.5832   2.0746 C.ar           1 <1>                0.0000
     34 C34         -2.9434  -5.1049   3.3063 C.ar           1 <1>                0.0000
     35 C35         -3.2248  -4.2646   4.3834 C.ar           1 <1>                0.0000
     36 S36         -3.6007  -4.6118   6.0689 S.3            1 <1>                0.0000
     37 C37         -3.7434  -2.9454   6.4069 C.2            1 <1>                0.0000
     38 C38         -4.0787  -2.3815   7.7636 C.3            1 <1>                0.0000
     39 C39         -5.5966  -2.2445   7.8980 C.3            1 <1>                0.0000
     40 C40         -5.9319  -1.6806   9.2547 C.ar           1 <1>                0.0000
     41 C41         -6.1407  -2.5310  10.3243 C.ar           1 <1>                0.0000
     42 C42         -6.4482  -2.0138  11.5688 C.ar           1 <1>                0.0000
     43 C43         -6.5465  -0.6461  11.7438 C.ar           1 <1>                0.0000
     44 C44         -6.3368   0.2044  10.6743 C.ar           1 <1>                0.0000
     45 C45         -6.0251  -0.3127   9.4308 C.ar           1 <1>                0.0000
     46 N46         -3.5303  -2.2347   5.3652 N.2            1 <1>                0.0000
     47 C47         -3.2399  -2.8744   4.2158 C.ar           1 <1>                0.0000
     48 C48         -2.9604  -2.3468   2.9411 C.ar           1 <1>                0.0000
     49 H49          1.7340  -2.0143  -6.2050 H              1 <1>                0.0000
     50 H50         -0.4477   1.5108  -5.2009 H              1 <1>                0.0000
     51 H51          1.6583   2.7718  -5.0271 H              1 <1>                0.0000
     52 H52          4.9336   1.3324  -5.4902 H              1 <1>                0.0000
     53 H53          3.5331   3.7266  -6.0224 H              1 <1>                0.0000
     54 H54          3.5452   3.4633  -4.2621 H              1 <1>                0.0000
     55 H55          6.0187   3.2947  -4.3043 H              1 <1>                0.0000
     56 H56          6.0066   3.5579  -6.0646 H              1 <1>                0.0000
     57 H57          7.8416   3.9810  -5.1241 H              1 <1>                0.0000
     58 H58         10.2277   4.5786  -5.0510 H              1 <1>                0.0000
     59 H59         10.9027   6.9184  -4.6956 H              1 <1>                0.0000
     60 H60          9.1951   8.6677  -4.4111 H              1 <1>                0.0000
     61 H61          6.8060   8.0829  -4.4889 H              1 <1>                0.0000
     62 H62         -1.3177  -2.8142  -4.2046 H              1 <1>                0.0000
     63 H63         -1.6481  -3.6324  -2.6006 H              1 <1>                0.0000
     64 H64         -2.1247  -4.5601  -0.3766 H              1 <1>                0.0000
     65 H65         -2.6170  -0.5941   1.1756 H              1 <1>                0.0000
     66 H66         -2.1333   0.3371  -1.0453 H              1 <1>                0.0000
     67 H67         -2.4633  -5.2408   1.2456 H              1 <1>                0.0000
     68 H68         -2.9349  -6.1754   3.4488 H              1 <1>                0.0000
     69 H69         -3.7043  -3.0510   8.5380 H              1 <1>                0.0000
     70 H70         -3.6142  -1.4017   7.8747 H              1 <1>                0.0000
     71 H71         -5.9710  -1.5750   7.1236 H              1 <1>                0.0000
     72 H72         -6.0611  -3.2243   7.7869 H              1 <1>                0.0000
     73 H73         -6.0639  -3.5996  10.1876 H              1 <1>                0.0000
     74 H74         -6.6121  -2.6782  12.4043 H              1 <1>                0.0000
     75 H75         -6.7875  -0.2420  12.7159 H              1 <1>                0.0000
     76 H76         -6.4140   1.2729  10.8110 H              1 <1>                0.0000
     77 H77         -5.8612   0.3517   8.5953 H              1 <1>                0.0000
     78 H78         -2.9613  -1.2778   2.7876 H              1 <1>                0.0000
@<TRIPOS>BOND
    1    1    2 2     
    2    2    3 2     
    3    2    4 1     
    4    4    9 ar    
    5    4    5 ar    
    6    5    6 ar    
    7    5   49 1     
    8    6    7 ar    
    9    6   20 1     
   10    7    8 ar    
   11    7   50 1     
   12    8    9 ar    
   13    8   51 1     
   14    9   10 1     
   15   10   11 1     
   16   10   52 1     
   17   11   12 1     
   18   11   53 1     
   19   11   54 1     
   20   12   13 1     
   21   12   55 1     
   22   12   56 1     
   23   13   14 1     
   24   14   19 ar    
   25   14   15 ar    
   26   15   16 ar    
   27   15   57 1     
   28   16   17 ar    
   29   16   58 1     
   30   17   18 ar    
   31   17   59 1     
   32   18   19 ar    
   33   18   60 1     
   34   19   61 1     
   35   20   21 2     
   36   20   22 2     
   37   20   23 1     
   38   23   24 am    
   39   23   62 1     
   40   24   25 2     
   41   24   26 1     
   42   26   31 ar    
   43   26   27 ar    
   44   27   28 ar    
   45   27   63 1     
   46   28   29 ar    
   47   28   64 1     
   48   29   30 ar    
   49   29   32 1     
   50   30   31 ar    
   51   30   65 1     
   52   31   66 1     
   53   32   48 ar    
   54   32   33 ar    
   55   33   34 ar    
   56   33   67 1     
   57   34   35 ar    
   58   34   68 1     
   59   35   47 ar    
   60   35   36 1     
   61   36   37 1     
   62   37   38 1     
   63   37   46 2     
   64   38   39 1     
   65   38   69 1     
   66   38   70 1     
   67   39   40 1     
   68   39   71 1     
   69   39   72 1     
   70   40   45 ar    
   71   40   41 ar    
   72   41   42 ar    
   73   41   73 1     
   74   42   43 ar    
   75   42   74 1     
   76   43   44 ar    
   77   43   75 1     
   78   44   45 ar    
   79   44   76 1     
   80   45   77 1     
   81   46   47 1     
   82   47   48 ar    
   83   48   78 1     
@<TRIPOS>SUBSTRUCTURE
      1 ****           1
@<TRIPOS>SET
DONOR_HYDROGENS      STATIC     ATOMS    <user>   **** ""
2 52 62
ATOM$RED        STATIC     ATOMS    COLORGROUP SYSTEM
2 52 62
