#       Name:                43U
#       Creating user name   gbret
#       Creation time:       Thu Sep  8 23:40:45 2016


#       File generated by GOLD software.
#

@<TRIPOS>MOLECULE
43U
    29    31     1
SMALL
NO_CHARGES


@<TRIPOS>ATOM
      1 C1          -0.2731   3.6976  -0.3458 C.3            1 <1>                0.0000
      2 O2          -0.2537   2.2687  -0.3537 O.3            1 <1>                0.0000
      3 C3           0.3695   1.6549   0.6849 C.ar           1 <1>                0.0000
      4 C4           0.9459   2.4097   1.6946 C.ar           1 <1>                0.0000
      5 C5           1.5797   1.7845   2.7508 C.ar           1 <1>                0.0000
      6 C6           1.6439   0.4019   2.8089 C.ar           1 <1>                0.0000
      7 Br7          2.5148  -0.4405   4.2608 Br             1 <1>                0.0000
      8 C8           1.0744  -0.3629   1.8115 C.ar           1 <1>                0.0000
      9 C9           0.4272   0.2577   0.7429 C.ar           1 <1>                0.0000
     10 C10         -0.1860  -0.5569  -0.3295 C.ar           1 <1>                0.0000
     11 N11         -0.8016   0.0234  -1.3575 N.ar           1 <1>                0.0000
     12 C12         -1.3528  -0.6993  -2.3222 C.ar           1 <1>                0.0000
     13 N13         -1.9812  -0.0465  -3.3703 N.pl3          1 <1>                0.0000
     14 N14         -1.3238  -2.0229  -2.3200 N.ar           1 <1>                0.0000
     15 C15         -0.7312  -2.6849  -1.3341 C.ar           1 <1>                0.0000
     16 N16         -0.5317  -4.0107  -1.0408 N.pl3          1 <1>                0.0000
     17 H17         -0.8273  -4.7668  -1.5716 H              1 <1>                0.0000
     18 C18          0.1588  -4.0697   0.1338 C.2            1 <1>                0.0000
     19 N19          0.3924  -2.8673   0.5740 N.2            1 <1>                0.0000
     20 C20         -0.1264  -1.9618  -0.2889 C.ar           1 <1>                0.0000
     21 H21          0.7495   4.0749  -0.3536 H              1 <1>                0.0000
     22 H22         -0.8003   4.0587  -1.2289 H              1 <1>                0.0000
     23 H23         -0.7833   4.0491   0.5510 H              1 <1>                0.0000
     24 H24          0.8997   3.4880   1.6552 H              1 <1>                0.0000
     25 H25          2.0277   2.3766   3.5351 H              1 <1>                0.0000
     26 H26          1.1263  -1.4406   1.8600 H              1 <1>                0.0000
     27 H27         -2.0122   0.9228  -3.3890 H              1 <1>                0.0000
     28 H28         -2.3904  -0.5588  -4.0851 H              1 <1>                0.0000
     29 H29          0.4661  -4.9803   0.6266 H              1 <1>                0.0000
@<TRIPOS>BOND
    1    1    2 1     
    2    1   21 1     
    3    1   22 1     
    4    1   23 1     
    5    2    3 1     
    6    3    9 ar    
    7    3    4 ar    
    8    4    5 ar    
    9    4   24 1     
   10    5    6 ar    
   11    5   25 1     
   12    6    7 1     
   13    6    8 ar    
   14    8    9 ar    
   15    8   26 1     
   16    9   10 1     
   17   10   20 ar    
   18   10   11 ar    
   19   11   12 ar    
   20   12   13 1     
   21   12   14 ar    
   22   13   27 1     
   23   13   28 1     
   24   14   15 ar    
   25   15   20 ar    
   26   15   16 1     
   27   16   17 1     
   28   16   18 1     
   29   18   19 2     
   30   18   29 1     
   31   19   20 1     
@<TRIPOS>SUBSTRUCTURE
      1 ****           1
@<TRIPOS>SET
DONOR_HYDROGENS      STATIC     ATOMS    <user>   **** ""
3 27 28 17
ATOM$RED        STATIC     ATOMS    COLORGROUP SYSTEM
3 27 28 17
