#       Name:                446
#       Creating user name   gbret
#       Creation time:       Thu Sep  8 23:41:26 2016


#       File generated by GOLD software.
#

@<TRIPOS>MOLECULE
446
    59    62     1
SMALL
NO_CHARGES


@<TRIPOS>ATOM
      1 C1           0.5971   3.2905  -2.1886 C.3            1 <1>                0.0000
      2 O2           0.5188   1.8420  -2.1260 O.3            1 <1>                0.0000
      3 C3          -0.7113   1.2921  -2.1855 C.2            1 <1>                0.0000
      4 O4          -1.6913   2.0044  -2.2869 O.2            1 <1>                0.0000
      5 C5          -0.8670  -0.1675  -2.1277 C.2            1 <1>                0.0000
      6 C6          -2.1336  -0.7056  -2.0221 C.2            1 <1>                0.0000
      7 C7          -3.3204   0.1752  -1.9682 C.ar           1 <1>                0.0000
      8 C8          -3.5018   1.0418  -0.8889 C.ar           1 <1>                0.0000
      9 C9          -4.6107   1.8611  -0.8451 C.ar           1 <1>                0.0000
     10 C10         -5.5422   1.8252  -1.8677 C.ar           1 <1>                0.0000
     11 C11         -5.3684   0.9685  -2.9403 C.ar           1 <1>                0.0000
     12 C12         -4.2612   0.1478  -2.9991 C.ar           1 <1>                0.0000
     13 C13         -2.2867  -2.1675  -1.9644 C.ar           1 <1>                0.0000
     14 C14         -3.5388  -2.7688  -1.8583 C.ar           1 <1>                0.0000
     15 C15         -3.6315  -4.1447  -1.8080 C.ar           1 <1>                0.0000
     16 Br16        -5.3294  -4.9646  -1.6645 Br             1 <1>                0.0000
     17 C17         -2.4893  -4.9330  -1.8622 C.ar           1 <1>                0.0000
     18 C18         -1.2413  -4.3569  -1.9672 C.ar           1 <1>                0.0000
     19 C19         -1.1252  -2.9691  -2.0195 C.ar           1 <1>                0.0000
     20 C20          0.1837  -2.3094  -2.1320 C.2            1 <1>                0.0000
     21 O21          1.2006  -2.9767  -2.1814 O.2            1 <1>                0.0000
     22 N22          0.2553  -0.9661  -2.1859 N.am           1 <1>                0.0000
     23 C23          1.5708  -0.3313  -2.2984 C.3            1 <1>                0.0000
     24 C24          2.1877  -0.2079  -0.9290 C.ar           1 <1>                0.0000
     25 C25          1.8461   0.8538  -0.1115 C.ar           1 <1>                0.0000
     26 C26          2.4098   0.9698   1.1440 C.ar           1 <1>                0.0000
     27 C27          3.3202   0.0185   1.5853 C.ar           1 <1>                0.0000
     28 N28          3.8927   0.1328   2.8570 N.am           1 <1>                0.0000
     29 C29          3.2294   0.7741   3.8394 C.2            1 <1>                0.0000
     30 O30          2.0958   1.1628   3.6523 O.2            1 <1>                0.0000
     31 C31          3.8962   1.0082   5.1705 C.3            1 <1>                0.0000
     32 C32          2.9336   1.7506   6.0995 C.3            1 <1>                0.0000
     33 C33          3.6004   1.9847   7.4306 C.2            1 <1>                0.0000
     34 O34          4.7399   1.5940   7.6187 O.co2          1 <1>                0.0000
     35 O35          3.0004   2.5649   8.3193 O.co2          1 <1>                0.0000
     36 C36          3.6608  -1.0468   0.7621 C.ar           1 <1>                0.0000
     37 C37          3.0899  -1.1597  -0.4904 C.ar           1 <1>                0.0000
     38 H38          1.6404   3.6008  -2.1309 H              1 <1>                0.0000
     39 H39          0.1663   3.6374  -3.1279 H              1 <1>                0.0000
     40 H40          0.0434   3.7207  -1.3542 H              1 <1>                0.0000
     41 H41         -2.7757   1.0706  -0.0900 H              1 <1>                0.0000
     42 H42         -4.7524   2.5318  -0.0105 H              1 <1>                0.0000
     43 H43         -6.4088   2.4685  -1.8283 H              1 <1>                0.0000
     44 H44         -6.0993   0.9451  -3.7351 H              1 <1>                0.0000
     45 H45         -4.1267  -0.5204  -3.8369 H              1 <1>                0.0000
     46 H46         -4.4313  -2.1621  -1.8153 H              1 <1>                0.0000
     47 H47         -2.5797  -6.0084  -1.8212 H              1 <1>                0.0000
     48 H48         -0.3585  -4.9776  -2.0087 H              1 <1>                0.0000
     49 H49          2.2147  -0.9397  -2.9335 H              1 <1>                0.0000
     50 H50          1.4594   0.6601  -2.7374 H              1 <1>                0.0000
     51 H51          1.1381   1.5933  -0.4553 H              1 <1>                0.0000
     52 H52          2.1431   1.7996   1.7817 H              1 <1>                0.0000
     53 H53          4.7669  -0.2495   3.0314 H              1 <1>                0.0000
     54 H54          4.1647   0.0503   5.6158 H              1 <1>                0.0000
     55 H55          4.7957   1.6066   5.0260 H              1 <1>                0.0000
     56 H56          2.6651   2.7086   5.6542 H              1 <1>                0.0000
     57 H57          2.0341   1.1523   6.2440 H              1 <1>                0.0000
     58 H58          4.3685  -1.7883   1.1025 H              1 <1>                0.0000
     59 H59          3.3544  -1.9879  -1.1311 H              1 <1>                0.0000
@<TRIPOS>BOND
    1    1    2 1     
    2    1   38 1     
    3    1   39 1     
    4    1   40 1     
    5    2    3 1     
    6    3    4 2     
    7    3    5 1     
    8    5   22 1     
    9    5    6 2     
   10    6    7 1     
   11    6   13 1     
   12    7   12 ar    
   13    7    8 ar    
   14    8    9 ar    
   15    8   41 1     
   16    9   10 ar    
   17    9   42 1     
   18   10   11 ar    
   19   10   43 1     
   20   11   12 ar    
   21   11   44 1     
   22   12   45 1     
   23   13   19 ar    
   24   13   14 ar    
   25   14   15 ar    
   26   14   46 1     
   27   15   16 1     
   28   15   17 ar    
   29   17   18 ar    
   30   17   47 1     
   31   18   19 ar    
   32   18   48 1     
   33   19   20 1     
   34   20   21 2     
   35   20   22 am    
   36   22   23 1     
   37   23   24 1     
   38   23   49 1     
   39   23   50 1     
   40   24   37 ar    
   41   24   25 ar    
   42   25   26 ar    
   43   25   51 1     
   44   26   27 ar    
   45   26   52 1     
   46   27   28 1     
   47   27   36 ar    
   48   28   29 am    
   49   28   53 1     
   50   29   30 2     
   51   29   31 1     
   52   31   32 1     
   53   31   54 1     
   54   31   55 1     
   55   32   33 1     
   56   32   56 1     
   57   32   57 1     
   58   33   34 ar    
   59   33   35 ar    
   60   36   37 ar    
   61   36   58 1     
   62   37   59 1     
@<TRIPOS>SUBSTRUCTURE
      1 ****           1
@<TRIPOS>SET
DONOR_HYDROGENS      STATIC     ATOMS    <user>   **** ""
1 53
ATOM$RED        STATIC     ATOMS    COLORGROUP SYSTEM
1 53
