#       Name:                45N
#       Creating user name   gbret
#       Creation time:       Thu Sep  8 23:44:53 2016


#       File generated by GOLD software.
#

@<TRIPOS>MOLECULE
45N
    34    36     1
SMALL
NO_CHARGES


@<TRIPOS>ATOM
      1 C1          -0.5668   0.8257   0.4815 C.3            1 <1>                0.0000
      2 N2          -0.5469  -0.6432   0.4734 N.4            1 <1>                0.0000
      3 H3          -0.0746  -0.9686  -0.3567 H              1 <1>                0.0000
      4 H4          -0.0589  -0.9774   1.2909 H              1 <1>                0.0000
      5 C5          -1.9251  -1.1516   0.4838 C.3            1 <1>                0.0000
      6 C6          -2.6166  -0.8714  -0.8735 C.3            1 <1>                0.0000
      7 C7          -3.7333  -1.9438  -0.9160 C.3            1 <1>                0.0000
      8 C8          -3.0819  -3.1935  -0.2884 C.3            1 <1>                0.0000
      9 C9          -1.9322  -2.6898   0.6016 C.3            1 <1>                0.0000
     10 C10          0.8470   1.3473   0.4708 C.ar           1 <1>                0.0000
     11 C11          1.5075   1.5742   1.6639 C.ar           1 <1>                0.0000
     12 C12          2.8045   2.0526   1.6593 C.ar           1 <1>                0.0000
     13 C13          3.4458   2.3060   0.4576 C.ar           1 <1>                0.0000
     14 O14          4.6984   2.7724   0.1809 O.3            1 <1>                0.0000
     15 C15          4.9361   2.4399  -1.1998 C.3            1 <1>                0.0000
     16 O16          3.6163   2.3999  -1.7740 O.3            1 <1>                0.0000
     17 C17          2.7805   2.0770  -0.7442 C.ar           1 <1>                0.0000
     18 C18          1.4826   1.5925  -0.7320 C.ar           1 <1>                0.0000
     19 H19         -1.0940   1.1868  -0.4016 H              1 <1>                0.0000
     20 H20         -1.0770   1.1772   1.3783 H              1 <1>                0.0000
     21 H21         -2.4898  -0.7038   1.3016 H              1 <1>                0.0000
     22 H22         -3.0433   0.1315  -0.8899 H              1 <1>                0.0000
     23 H23         -1.9177  -1.0085  -1.6986 H              1 <1>                0.0000
     24 H24         -4.5920  -1.6240  -0.3257 H              1 <1>                0.0000
     25 H25         -4.0304  -2.1447  -1.9453 H              1 <1>                0.0000
     26 H26         -3.8125  -3.7323   0.3148 H              1 <1>                0.0000
     27 H27         -2.6909  -3.8436  -1.0711 H              1 <1>                0.0000
     28 H28         -0.9832  -3.0955   0.2509 H              1 <1>                0.0000
     29 H29         -2.1049  -2.9842   1.6368 H              1 <1>                0.0000
     30 H30          1.0091   1.3776   2.6016 H              1 <1>                0.0000
     31 H31          3.3180   2.2292   2.5929 H              1 <1>                0.0000
     32 H32          5.5398   3.2096  -1.6806 H              1 <1>                0.0000
     33 H33          5.4191   1.4662  -1.2816 H              1 <1>                0.0000
     34 H34          0.9660   1.4094  -1.6627 H              1 <1>                0.0000
@<TRIPOS>BOND
    1    1    2 1     
    2    1   10 1     
    3    1   19 1     
    4    1   20 1     
    5    2    3 1     
    6    2    4 1     
    7    2    5 1     
    8    5    9 1     
    9    5    6 1     
   10    5   21 1     
   11    6    7 1     
   12    6   22 1     
   13    6   23 1     
   14    7    8 1     
   15    7   24 1     
   16    7   25 1     
   17    8    9 1     
   18    8   26 1     
   19    8   27 1     
   20    9   28 1     
   21    9   29 1     
   22   10   18 ar    
   23   10   11 ar    
   24   11   12 ar    
   25   11   30 1     
   26   12   13 ar    
   27   12   31 1     
   28   13   17 ar    
   29   13   14 1     
   30   14   15 1     
   31   15   16 1     
   32   15   32 1     
   33   15   33 1     
   34   16   17 1     
   35   17   18 ar    
   36   18   34 1     
@<TRIPOS>SUBSTRUCTURE
      1 ****           1
@<TRIPOS>SET
DONOR_HYDROGENS      STATIC     ATOMS    <user>   **** ""
2 3 4
ATOM$RED        STATIC     ATOMS    COLORGROUP SYSTEM
2 3 4
