#       Name:                48L
#       Creating user name   gbret
#       Creation time:       Thu Sep  8 23:51:37 2016


#       File generated by GOLD software.
#

@<TRIPOS>MOLECULE
48L
    71    75     1
SMALL
NO_CHARGES


@<TRIPOS>ATOM
      1 C1          -2.9065   3.2708   5.1765 C.3            1 <1>                0.0000
      2 O2          -3.6267   2.3415   4.3643 O.3            1 <1>                0.0000
      3 C3          -2.9194   1.6734   3.4172 C.ar           1 <1>                0.0000
      4 C4          -1.5553   1.9062   3.2785 C.ar           1 <1>                0.0000
      5 C5          -0.8313   1.2324   2.3208 C.ar           1 <1>                0.0000
      6 C6          -1.4670   0.3116   1.4849 C.ar           1 <1>                0.0000
      7 C7          -0.6936  -0.4132   0.4570 C.2            1 <1>                0.0000
      8 N8          -0.6001  -1.7023   0.4256 N.pl3          1 <1>                0.0000
      9 H9          -1.0194  -2.3048   1.0598 H              1 <1>                0.0000
     10 C10          0.2328  -2.1228  -0.7091 C.3            1 <1>                0.0000
     11 C11          0.6433  -0.8006  -1.3865 C.3            1 <1>                0.0000
     12 N12         -0.0125   0.2240  -0.5569 N.am           1 <1>                0.0000
     13 C13          0.0499   1.5563  -0.7509 C.2            1 <1>                0.0000
     14 O14         -0.2922   2.3161   0.1342 O.2            1 <1>                0.0000
     15 N15          0.4916   2.0461  -1.9262 N.am           1 <1>                0.0000
     16 C16          0.4804   3.4918  -2.2066 C.3            1 <1>                0.0000
     17 C17          1.9231   3.9442  -2.4399 C.3            1 <1>                0.0000
     18 N18          2.6094   3.0345  -3.3469 N.am           1 <1>                0.0000
     19 C19          2.2432   1.7722  -3.5739 C.2            1 <1>                0.0000
     20 O20          2.9413   1.0873  -4.2912 O.2            1 <1>                0.0000
     21 C21          1.0099   1.1592  -2.9785 C.3            1 <1>                0.0000
     22 C22          2.1408  -0.6332  -1.3615 C.ar           1 <1>                0.0000
     23 C23          2.7516  -0.0400  -0.2724 C.ar           1 <1>                0.0000
     24 C24          4.1249   0.1141  -0.2490 C.ar           1 <1>                0.0000
     25 C25          4.8884  -0.3257  -1.3157 C.ar           1 <1>                0.0000
     26 Cl26         6.6134  -0.1330  -1.2868 Cl             1 <1>                0.0000
     27 C27          4.2765  -0.9197  -2.4052 C.ar           1 <1>                0.0000
     28 C28          2.9036  -1.0781  -2.4251 C.ar           1 <1>                0.0000
     29 C29          1.4500  -2.8666  -0.2229 C.ar           1 <1>                0.0000
     30 C30          1.8531  -2.7469   1.0937 C.ar           1 <1>                0.0000
     31 C31          2.9701  -3.4294   1.5400 C.ar           1 <1>                0.0000
     32 Br32         3.5208  -3.2650   3.3415 Br             1 <1>                0.0000
     33 C33          3.6845  -4.2328   0.6692 C.ar           1 <1>                0.0000
     34 C34          3.2827  -4.3534  -0.6472 C.ar           1 <1>                0.0000
     35 C35          2.1613  -3.6744  -1.0935 C.ar           1 <1>                0.0000
     36 F36          1.7675  -3.7922  -2.3805 F              1 <1>                0.0000
     37 C37         -2.8415   0.0779   1.6256 C.ar           1 <1>                0.0000
     38 O38         -3.4664  -0.8156   0.8174 O.3            1 <1>                0.0000
     39 C39         -4.8590  -1.0369   1.0493 C.3            1 <1>                0.0000
     40 C40         -5.6732   0.0410   0.3309 C.3            1 <1>                0.0000
     41 C41         -5.2526  -2.4150   0.5139 C.3            1 <1>                0.0000
     42 C42         -3.5588   0.7573   2.5956 C.ar           1 <1>                0.0000
     43 H43         -2.1173   2.7468   5.7157 H              1 <1>                0.0000
     44 H44         -2.4649   4.0405   4.5436 H              1 <1>                0.0000
     45 H45         -3.5881   3.7341   5.8900 H              1 <1>                0.0000
     46 H46         -1.0624   2.6182   3.9239 H              1 <1>                0.0000
     47 H47          0.2278   1.4160   2.2157 H              1 <1>                0.0000
     48 H48         -0.3438  -2.7411  -1.3971 H              1 <1>                0.0000
     49 H49          0.2680  -0.7599  -2.4091 H              1 <1>                0.0000
     50 H50         -0.1156   3.6891  -3.0977 H              1 <1>                0.0000
     51 H51          0.0598   4.0281  -1.3560 H              1 <1>                0.0000
     52 H52          1.9199   4.9455  -2.8705 H              1 <1>                0.0000
     53 H53          2.4509   3.9661  -1.4865 H              1 <1>                0.0000
     54 H54          3.3872   3.3703  -3.8193 H              1 <1>                0.0000
     55 H55          1.2549   0.1862  -2.5526 H              1 <1>                0.0000
     56 H56          0.2512   1.0405  -3.7521 H              1 <1>                0.0000
     57 H57          2.1555   0.3033   0.5602 H              1 <1>                0.0000
     58 H58          4.6019   0.5782   0.6016 H              1 <1>                0.0000
     59 H59          4.8720  -1.2630  -3.2383 H              1 <1>                0.0000
     60 H60          2.4259  -1.5420  -3.2753 H              1 <1>                0.0000
     61 H61          1.2959  -2.1199   1.7740 H              1 <1>                0.0000
     62 H62          4.5567  -4.7655   1.0184 H              1 <1>                0.0000
     63 H63          3.8408  -4.9800  -1.3271 H              1 <1>                0.0000
     64 H64         -5.0608  -0.9916   2.1196 H              1 <1>                0.0000
     65 H65         -5.4714  -0.0042  -0.7394 H              1 <1>                0.0000
     66 H66         -6.7354  -0.1278   0.5077 H              1 <1>                0.0000
     67 H67         -5.3928   1.0228   0.7123 H              1 <1>                0.0000
     68 H68         -4.6725  -3.1829   1.0258 H              1 <1>                0.0000
     69 H69         -6.3148  -2.5838   0.6908 H              1 <1>                0.0000
     70 H70         -5.0508  -2.4602  -0.5563 H              1 <1>                0.0000
     71 H71         -4.6183   0.5797   2.7069 H              1 <1>                0.0000
@<TRIPOS>BOND
    1    1    2 1     
    2    1   43 1     
    3    1   44 1     
    4    1   45 1     
    5    2    3 1     
    6    3   42 ar    
    7    3    4 ar    
    8    4    5 ar    
    9    4   46 1     
   10    5    6 ar    
   11    5   47 1     
   12    6    7 1     
   13    6   37 ar    
   14    7   12 2     
   15    7    8 1     
   16    8    9 1     
   17    8   10 1     
   18   10   11 1     
   19   10   29 1     
   20   10   48 1     
   21   11   12 1     
   22   11   22 1     
   23   11   49 1     
   24   12   13 am    
   25   13   14 2     
   26   13   15 am    
   27   15   21 1     
   28   15   16 1     
   29   16   17 1     
   30   16   50 1     
   31   16   51 1     
   32   17   18 1     
   33   17   52 1     
   34   17   53 1     
   35   18   19 am    
   36   18   54 1     
   37   19   20 2     
   38   19   21 1     
   39   21   55 1     
   40   21   56 1     
   41   22   28 ar    
   42   22   23 ar    
   43   23   24 ar    
   44   23   57 1     
   45   24   25 ar    
   46   24   58 1     
   47   25   26 1     
   48   25   27 ar    
   49   27   28 ar    
   50   27   59 1     
   51   28   60 1     
   52   29   35 ar    
   53   29   30 ar    
   54   30   31 ar    
   55   30   61 1     
   56   31   32 1     
   57   31   33 ar    
   58   33   34 ar    
   59   33   62 1     
   60   34   35 ar    
   61   34   63 1     
   62   35   36 1     
   63   37   38 1     
   64   37   42 ar    
   65   38   39 1     
   66   39   40 1     
   67   39   41 1     
   68   39   64 1     
   69   40   65 1     
   70   40   66 1     
   71   40   67 1     
   72   41   68 1     
   73   41   69 1     
   74   41   70 1     
   75   42   71 1     
@<TRIPOS>SUBSTRUCTURE
      1 ****           1
@<TRIPOS>SET
DONOR_HYDROGENS      STATIC     ATOMS    <user>   **** ""
2 9 54
ATOM$RED        STATIC     ATOMS    COLORGROUP SYSTEM
2 9 54
