#       Name:                4E2
#       Creating user name   gbret
#       Creation time:       Fri Sep  9 00:03:54 2016


#       File generated by GOLD software.
#

@<TRIPOS>MOLECULE
4E2
    29    32     1
SMALL
NO_CHARGES


@<TRIPOS>ATOM
      1 O1           3.3096  -1.3563  -0.6153 O.co2          1 <1>                0.0000
      2 C2           3.1698  -0.3638   0.0848 C.2            1 <1>                0.0000
      3 O3           4.0985   0.0347   0.7728 O.co2          1 <1>                0.0000
      4 C4           1.8791   0.3581   0.0949 C.ar           1 <1>                0.0000
      5 N5           1.8726   1.6735   0.1968 N.ar           1 <1>                0.0000
      6 C6           0.7378   2.3751   0.2109 C.ar           1 <1>                0.0000
      7 C7           0.7653   3.7788   0.3201 C.ar           1 <1>                0.0000
      8 C8          -0.4006   4.4796   0.3327 C.ar           1 <1>                0.0000
      9 C9          -1.6305   3.8303   0.2390 C.ar           1 <1>                0.0000
     10 I10         -3.3983   4.9543   0.2631 I              1 <1>                0.0000
     11 C11         -1.6972   2.4729   0.1314 C.ar           1 <1>                0.0000
     12 C12         -0.5162   1.7184   0.1155 C.ar           1 <1>                0.0000
     13 C13         -0.5469   0.3098   0.0054 C.ar           1 <1>                0.0000
     14 N14         -1.5607  -0.6075  -0.1024 N.pl3          1 <1>                0.0000
     15 H15         -2.5057  -0.3893  -0.1201 H              1 <1>                0.0000
     16 C16         -1.0439  -1.8878  -0.1829 C.ar           1 <1>                0.0000
     17 C17         -1.6443  -3.1385  -0.3022 C.ar           1 <1>                0.0000
     18 Cl18        -3.3740  -3.2673  -0.3754 Cl             1 <1>                0.0000
     19 C19         -0.8654  -4.2747  -0.3627 C.ar           1 <1>                0.0000
     20 C20          0.5177  -4.1863  -0.3049 C.ar           1 <1>                0.0000
     21 C21          1.1307  -2.9586  -0.1864 C.ar           1 <1>                0.0000
     22 C22          0.3563  -1.8004  -0.1250 C.ar           1 <1>                0.0000
     23 C23          0.6771  -0.3701  -0.0103 C.ar           1 <1>                0.0000
     24 H24          1.7096   4.2977   0.3940 H              1 <1>                0.0000
     25 H25         -0.3729   5.5560   0.4171 H              1 <1>                0.0000
     26 H26         -2.6559   1.9811   0.0588 H              1 <1>                0.0000
     27 H27         -1.3364  -5.2422  -0.4556 H              1 <1>                0.0000
     28 H28          1.1163  -5.0839  -0.3525 H              1 <1>                0.0000
     29 H29          2.2077  -2.8931  -0.1413 H              1 <1>                0.0000
@<TRIPOS>BOND
    1    1    2 ar    
    2    2    3 ar    
    3    2    4 1     
    4    4   23 ar    
    5    4    5 ar    
    6    5    6 ar    
    7    6   12 ar    
    8    6    7 ar    
    9    7    8 ar    
   10    7   24 1     
   11    8    9 ar    
   12    8   25 1     
   13    9   10 1     
   14    9   11 ar    
   15   11   12 ar    
   16   11   26 1     
   17   12   13 ar    
   18   13   23 ar    
   19   13   14 1     
   20   14   15 1     
   21   14   16 1     
   22   16   22 ar    
   23   16   17 ar    
   24   17   18 1     
   25   17   19 ar    
   26   19   20 ar    
   27   19   27 1     
   28   20   21 ar    
   29   20   28 1     
   30   21   22 ar    
   31   21   29 1     
   32   22   23 1     
@<TRIPOS>SUBSTRUCTURE
      1 ****           1
@<TRIPOS>SET
DONOR_HYDROGENS      STATIC     ATOMS    <user>   **** ""
1 15
ATOM$RED        STATIC     ATOMS    COLORGROUP SYSTEM
1 15
