#       Name:                4E9
#       Creating user name   gbret
#       Creation time:       Fri Sep  9 00:04:18 2016


#       File generated by GOLD software.
#

@<TRIPOS>MOLECULE
4E9
    63    69     1
SMALL
NO_CHARGES


@<TRIPOS>ATOM
      1 N1           1.8831   6.9482   2.5515 N.pl3          1 <1>                0.0000
      2 C2           1.9529   5.6477   2.1169 C.2            1 <1>                0.0000
      3 N3           0.8644   5.0662   1.6648 N.2            1 <1>                0.0000
      4 C4           0.8856   3.8006   1.2307 C.2            1 <1>                0.0000
      5 N5          -0.0628   2.9520   0.7181 N.pl3          1 <1>                0.0000
      6 C6          -1.4776   3.2637   0.5004 C.3            1 <1>                0.0000
      7 C7          -1.7716   3.4016  -1.0099 C.3            1 <1>                0.0000
      8 C8          -3.1768   2.7815  -1.1770 C.3            1 <1>                0.0000
      9 O9          -3.1251   1.6523  -2.0512 O.3            1 <1>                0.0000
     10 C10         -3.5656   2.3422   0.2521 C.3            1 <1>                0.0000
     11 C11         -4.3396   1.0230   0.2118 C.3            1 <1>                0.0000
     12 O12         -4.7896   0.6944   1.5277 O.3            1 <1>                0.0000
     13 P13         -5.6399  -0.6323   1.8579 P.3            1 <1>                0.0000
     14 O14         -4.7595  -1.8987   1.5830 O.co2          1 <1>                0.0000
     15 O15         -6.0727  -0.6139   3.3634 O.co2          1 <1>                0.0000
     16 O16         -6.9148  -0.6752   0.9484 O.co2          1 <1>                0.0000
     17 O17         -2.3075   2.1662   0.9392 O.3            1 <1>                0.0000
     18 C18          0.5550   1.7609   0.4470 C.2            1 <1>                0.0000
     19 N19         -0.0653   0.6435  -0.0840 N.pl3          1 <1>                0.0000
     20 C20          0.6335  -0.5482  -0.1989 C.ar           1 <1>                0.0000
     21 C21          1.8832  -0.6801   0.3843 C.ar           1 <1>                0.0000
     22 C22          2.5939  -1.8605   0.2794 C.ar           1 <1>                0.0000
     23 C23          2.0693  -2.9482  -0.4165 C.ar           1 <1>                0.0000
     24 C24          2.8376  -4.2003  -0.5198 C.ar           1 <1>                0.0000
     25 C25          4.0949  -4.3104   0.0768 C.ar           1 <1>                0.0000
     26 C26          4.8030  -5.4874  -0.0270 C.ar           1 <1>                0.0000
     27 C27          4.2788  -6.5692  -0.7208 C.ar           1 <1>                0.0000
     28 C28          3.0407  -6.4835  -1.3173 C.ar           1 <1>                0.0000
     29 C29          2.3059  -5.2987  -1.2238 C.ar           1 <1>                0.0000
     30 C30          0.9812  -5.1881  -1.8539 C.2            1 <1>                0.0000
     31 O31          0.5073  -6.1288  -2.4658 O.2            1 <1>                0.0000
     32 C32          0.2373  -3.9254  -1.7336 C.ar           1 <1>                0.0000
     33 C33         -1.0186  -3.7870  -2.3179 C.ar           1 <1>                0.0000
     34 C34         -1.7172  -2.5957  -2.2040 C.ar           1 <1>                0.0000
     35 C35         -1.1884  -1.5281  -1.5143 C.ar           1 <1>                0.0000
     36 C36          0.0706  -1.6350  -0.9068 C.ar           1 <1>                0.0000
     37 C37          0.7996  -2.8423  -1.0197 C.ar           1 <1>                0.0000
     38 N38          1.8216   1.8402   0.7659 N.2            1 <1>                0.0000
     39 C39          2.0835   3.0794   1.2560 C.2            1 <1>                0.0000
     40 C40          3.2469   3.7163   1.7445 C.2            1 <1>                0.0000
     41 O41          4.3128   3.1249   1.7845 O.2            1 <1>                0.0000
     42 N42          3.1504   4.9981   2.1614 N.am           1 <1>                0.0000
     43 H43          3.9355   5.4559   2.5003 H              1 <1>                0.0000
     44 H44          2.6790   7.3919   2.8841 H              1 <1>                0.0000
     45 H45          1.0387   7.4247   2.5222 H              1 <1>                0.0000
     46 H46         -1.7491   4.1788   1.0267 H              1 <1>                0.0000
     47 H47         -1.7801   4.4515  -1.3030 H              1 <1>                0.0000
     48 H48         -1.0374   2.8469  -1.5941 H              1 <1>                0.0000
     49 H49         -3.8795   3.5241  -1.5550 H              1 <1>                0.0000
     50 H50         -2.8279   1.8619  -2.9472 H              1 <1>                0.0000
     51 H51         -4.1604   3.1156   0.7382 H              1 <1>                0.0000
     52 H52         -5.1989   1.1260  -0.4508 H              1 <1>                0.0000
     53 H53         -3.6885   0.2309  -0.1579 H              1 <1>                0.0000
     54 H54         -0.9889   0.6943  -0.3758 H              1 <1>                0.0000
     55 H55          2.3078   0.1509   0.9280 H              1 <1>                0.0000
     56 H56          3.5668  -1.9409   0.7414 H              1 <1>                0.0000
     57 H57          4.5117  -3.4743   0.6186 H              1 <1>                0.0000
     58 H58          5.7755  -5.5690   0.4355 H              1 <1>                0.0000
     59 H59          4.8464  -7.4851  -0.7936 H              1 <1>                0.0000
     60 H60          2.6388  -7.3294  -1.8552 H              1 <1>                0.0000
     61 H61         -1.4508  -4.6127  -2.8636 H              1 <1>                0.0000
     62 H62         -2.6904  -2.5034  -2.6631 H              1 <1>                0.0000
     63 H63         -1.7472  -0.6072  -1.4366 H              1 <1>                0.0000
@<TRIPOS>BOND
    1    1    2 1     
    2    1   44 1     
    3    1   45 1     
    4    2   42 1     
    5    2    3 2     
    6    3    4 1     
    7    4   39 2     
    8    4    5 1     
    9    5    6 1     
   10    5   18 1     
   11    6   17 1     
   12    6    7 1     
   13    6   46 1     
   14    7    8 1     
   15    7   47 1     
   16    7   48 1     
   17    8    9 1     
   18    8   10 1     
   19    8   49 1     
   20    9   50 1     
   21   10   11 1     
   22   10   17 1     
   23   10   51 1     
   24   11   12 1     
   25   11   52 1     
   26   11   53 1     
   27   12   13 1     
   28   13   14 ar    
   29   13   15 ar    
   30   13   16 ar    
   31   18   19 1     
   32   18   38 2     
   33   19   20 1     
   34   19   54 1     
   35   20   36 ar    
   36   20   21 ar    
   37   21   22 ar    
   38   21   55 1     
   39   22   23 ar    
   40   22   56 1     
   41   23   37 ar    
   42   23   24 1     
   43   24   29 ar    
   44   24   25 ar    
   45   25   26 ar    
   46   25   57 1     
   47   26   27 ar    
   48   26   58 1     
   49   27   28 ar    
   50   27   59 1     
   51   28   29 ar    
   52   28   60 1     
   53   29   30 1     
   54   30   31 2     
   55   30   32 1     
   56   32   37 ar    
   57   32   33 ar    
   58   33   34 ar    
   59   33   61 1     
   60   34   35 ar    
   61   34   62 1     
   62   35   36 ar    
   63   35   63 1     
   64   36   37 ar    
   65   38   39 1     
   66   39   40 1     
   67   40   41 2     
   68   40   42 am    
   69   42   43 1     
@<TRIPOS>SUBSTRUCTURE
      1 ****           1
@<TRIPOS>SET
DONOR_HYDROGENS      STATIC     ATOMS    <user>   **** ""
5 44 45 50 54 43
ATOM$RED        STATIC     ATOMS    COLORGROUP SYSTEM
5 44 45 50 54 43
