#       Name:                4EM
#       Creating user name   gbret
#       Creation time:       Fri Sep  9 00:05:03 2016


#       File generated by GOLD software.
#

@<TRIPOS>MOLECULE
4EM
    54    54     1
SMALL
NO_CHARGES


@<TRIPOS>ATOM
      1 C1          -4.7352  -1.0250  -0.6069 C.3            1 <1>                0.0000
      2 C2          -5.2364  -0.4909  -1.9502 C.3            1 <1>                0.0000
      3 C3          -6.6939  -0.9094  -2.1537 C.3            1 <1>                0.0000
      4 C4          -5.1379   1.0359  -1.9608 C.3            1 <1>                0.0000
      5 O5          -5.9392   1.5722  -0.9060 O.3            1 <1>                0.0000
      6 P6          -6.0710   3.1513  -0.6211 P.3            1 <1>                0.0000
      7 O7          -6.7791   3.8437  -1.8350 O.co2          1 <1>                0.0000
      8 O8          -6.9184   3.3787   0.6769 O.co2          1 <1>                0.0000
      9 O9          -4.6439   3.7680  -0.4278 O.co2          1 <1>                0.0000
     10 C10         -4.3785  -1.0651  -3.0795 C.3            1 <1>                0.0000
     11 O11         -4.9268  -0.6744  -4.3400 O.3            1 <1>                0.0000
     12 C12         -2.9715  -0.5388  -2.9589 C.2            1 <1>                0.0000
     13 O13         -2.5374   0.2280  -3.7922 O.2            1 <1>                0.0000
     14 N14         -2.1957  -0.9203  -1.9249 N.am           1 <1>                0.0000
     15 C15         -0.8636  -0.3351  -1.7538 C.3            1 <1>                0.0000
     16 C16         -0.1983  -0.9355  -0.5137 C.3            1 <1>                0.0000
     17 C17          1.1721  -0.3336  -0.3378 C.2            1 <1>                0.0000
     18 O18          1.5767   0.4940  -1.1265 O.2            1 <1>                0.0000
     19 N19          1.9479  -0.7151   0.6962 N.am           1 <1>                0.0000
     20 C20          3.2801  -0.1300   0.8673 C.3            1 <1>                0.0000
     21 C21          3.9454  -0.7303   2.1074 C.3            1 <1>                0.0000
     22 N22          5.2775  -0.1452   2.2784 N.am           1 <1>                0.0000
     23 C23          6.0534  -0.5267   3.3124 C.2            1 <1>                0.0000
     24 O24          5.6473  -1.3572   4.1038 O.2            1 <1>                0.0000
     25 C25          7.3871   0.0591   3.4837 C.2            1 <1>                0.0000
     26 C26          8.2859  -0.2397   4.4856 C.2            1 <1>                0.0000
     27 C27          9.4222   0.5450   4.2656 C.2            1 <1>                0.0000
     28 C28          9.2027   1.2929   3.1578 C.2            1 <1>                0.0000
     29 N29          7.9718   1.0030   2.6700 N.pl3          1 <1>                0.0000
     30 H30          7.5679   1.3990   1.8820 H              1 <1>                0.0000
     31 H31         -4.6976  -2.1139  -0.6400 H              1 <1>                0.0000
     32 H32         -3.7375  -0.6329  -0.4094 H              1 <1>                0.0000
     33 H33         -5.4133  -0.7088   0.1857 H              1 <1>                0.0000
     34 H34         -7.3144  -0.4508  -1.3838 H              1 <1>                0.0000
     35 H35         -7.0323  -0.5812  -3.1364 H              1 <1>                0.0000
     36 H36         -6.7732  -1.9944  -2.0858 H              1 <1>                0.0000
     37 H37         -4.0996   1.3340  -1.8158 H              1 <1>                0.0000
     38 H38         -5.4950   1.4164  -2.9178 H              1 <1>                0.0000
     39 H39         -4.3668  -2.1528  -3.0098 H              1 <1>                0.0000
     40 H40         -4.9679   0.2827  -4.4713 H              1 <1>                0.0000
     41 H41         -2.5193  -1.5822  -1.2941 H              1 <1>                0.0000
     42 H42         -0.2561  -0.5514  -2.6327 H              1 <1>                0.0000
     43 H43         -0.9538   0.7442  -1.6312 H              1 <1>                0.0000
     44 H44         -0.8057  -0.7193   0.3651 H              1 <1>                0.0000
     45 H45         -0.1080  -2.0148  -0.6364 H              1 <1>                0.0000
     46 H46          1.6243  -1.3770   1.3270 H              1 <1>                0.0000
     47 H47          3.8875  -0.3462  -0.0116 H              1 <1>                0.0000
     48 H48          3.1898   0.9493   0.9899 H              1 <1>                0.0000
     49 H49          3.3379  -0.5141   2.9862 H              1 <1>                0.0000
     50 H50          4.0356  -1.8097   1.9847 H              1 <1>                0.0000
     51 H51          5.6011   0.5167   1.6476 H              1 <1>                0.0000
     52 H52          8.1397  -0.9464   5.2891 H              1 <1>                0.0000
     53 H53         10.3161   0.5535   4.8716 H              1 <1>                0.0000
     54 H54          9.8966   2.0017   2.7307 H              1 <1>                0.0000
@<TRIPOS>BOND
    1    1    2 1     
    2    1   31 1     
    3    1   32 1     
    4    1   33 1     
    5    2    3 1     
    6    2    4 1     
    7    2   10 1     
    8    3   34 1     
    9    3   35 1     
   10    3   36 1     
   11    4    5 1     
   12    4   37 1     
   13    4   38 1     
   14    5    6 1     
   15    6    7 ar    
   16    6    8 ar    
   17    6    9 ar    
   18   10   11 1     
   19   10   12 1     
   20   10   39 1     
   21   11   40 1     
   22   12   13 2     
   23   12   14 am    
   24   14   15 1     
   25   14   41 1     
   26   15   16 1     
   27   15   42 1     
   28   15   43 1     
   29   16   17 1     
   30   16   44 1     
   31   16   45 1     
   32   17   18 2     
   33   17   19 am    
   34   19   20 1     
   35   19   46 1     
   36   20   21 1     
   37   20   47 1     
   38   20   48 1     
   39   21   22 1     
   40   21   49 1     
   41   21   50 1     
   42   22   23 am    
   43   22   51 1     
   44   23   24 2     
   45   23   25 1     
   46   25   29 1     
   47   25   26 2     
   48   26   27 1     
   49   26   52 1     
   50   27   28 2     
   51   27   53 1     
   52   28   29 1     
   53   28   54 1     
   54   29   30 1     
@<TRIPOS>SUBSTRUCTURE
      1 ****           1
@<TRIPOS>SET
DONOR_HYDROGENS      STATIC     ATOMS    <user>   **** ""
5 40 41 46 51 30
ATOM$RED        STATIC     ATOMS    COLORGROUP SYSTEM
5 40 41 46 51 30
