#       Name:                4HD
#       Creating user name   gbret
#       Creation time:       Fri Sep  9 00:10:54 2016


#       File generated by GOLD software.
#

@<TRIPOS>MOLECULE
4HD
    56    55     1
SMALL
NO_CHARGES


@<TRIPOS>ATOM
      1 C1          -8.6085   6.8759   2.3202 C.3            1 <1>                0.0000
      2 C2          -8.5877   5.3460   2.3118 C.3            1 <1>                0.0000
      3 C3          -7.8824   4.8600   1.0719 C.2            1 <1>                0.0000
      4 C4          -6.8650   4.0413   1.1755 C.2            1 <1>                0.0000
      5 C5          -6.1596   3.5553  -0.0643 C.3            1 <1>                0.0000
      6 C6          -4.6886   3.8654   0.0404 C.2            1 <1>                0.0000
      7 C7          -3.8059   2.9066  -0.0927 C.2            1 <1>                0.0000
      8 C8          -2.3349   3.2167   0.0121 C.3            1 <1>                0.0000
      9 C9          -1.7101   2.3383   1.0652 C.2            1 <1>                0.0000
     10 C10         -0.6785   1.5887   0.7652 C.2            1 <1>                0.0000
     11 C11         -0.0537   0.7103   1.8183 C.3            1 <1>                0.0000
     12 C12         -0.0163  -0.7139   1.3270 C.2            1 <1>                0.0000
     13 C13          1.1187  -1.3675   1.2989 C.2            1 <1>                0.0000
     14 C14          1.1561  -2.7916   0.8076 C.3            1 <1>                0.0000
     15 C15          2.1634  -2.9123  -0.3067 C.2            1 <1>                0.0000
     16 C16          3.1414  -3.8079  -0.2241 C.2            1 <1>                0.0000
     17 C17          4.1248  -3.9258  -1.3119 C.2            1 <1>                0.0000
     18 C18          5.1029  -4.8214  -1.2293 C.2            1 <1>                0.0000
     19 C19          6.1102  -4.9420  -2.3436 C.3            1 <1>                0.0000
     20 O20          5.8741  -3.9182  -3.3121 O.3            1 <1>                0.0000
     21 C21          7.5219  -4.7892  -1.7737 C.3            1 <1>                0.0000
     22 C22          8.5484  -5.0353  -2.8813 C.3            1 <1>                0.0000
     23 C23          9.9388  -4.8848  -2.3200 C.2            1 <1>                0.0000
     24 O24         10.0943  -4.6065  -1.1431 O.co2          1 <1>                0.0000
     25 O25         10.9082  -5.0413  -3.0426 O.co2          1 <1>                0.0000
     26 H26         -7.5859   7.2532   2.3125 H              1 <1>                0.0000
     27 H27         -9.1357   7.2369   1.4372 H              1 <1>                0.0000
     28 H28         -9.1187   7.2274   3.2170 H              1 <1>                0.0000
     29 H29         -8.0605   4.9850   3.1949 H              1 <1>                0.0000
     30 H30         -9.6103   4.9687   2.3196 H              1 <1>                0.0000
     31 H31         -8.2156   5.1867   0.0980 H              1 <1>                0.0000
     32 H32         -6.5317   3.7147   2.1495 H              1 <1>                0.0000
     33 H33         -6.2978   2.4786  -0.1625 H              1 <1>                0.0000
     34 H34         -6.5751   4.0562  -0.9387 H              1 <1>                0.0000
     35 H35         -4.3620   4.8782   0.2252 H              1 <1>                0.0000
     36 H36         -4.1325   1.8939  -0.2775 H              1 <1>                0.0000
     37 H37         -1.8549   3.0299  -0.9485 H              1 <1>                0.0000
     38 H38         -2.2029   4.2633   0.2868 H              1 <1>                0.0000
     39 H39         -2.1128   2.3268   2.0673 H              1 <1>                0.0000
     40 H40         -0.2758   1.6002  -0.2368 H              1 <1>                0.0000
     41 H41          0.9615   1.0516   2.0206 H              1 <1>                0.0000
     42 H42         -0.6441   0.7637   2.7330 H              1 <1>                0.0000
     43 H43         -0.9252  -1.1957   0.9982 H              1 <1>                0.0000
     44 H44          2.0276  -0.8856   1.6277 H              1 <1>                0.0000
     45 H45          1.4403  -3.4514   1.6273 H              1 <1>                0.0000
     46 H46          0.1703  -3.0747   0.4385 H              1 <1>                0.0000
     47 H47          2.0904  -2.2709  -1.1725 H              1 <1>                0.0000
     48 H48          3.2145  -4.4494   0.6417 H              1 <1>                0.0000
     49 H49          4.0518  -3.2843  -2.1777 H              1 <1>                0.0000
     50 H50          5.1759  -5.4628  -0.3635 H              1 <1>                0.0000
     51 H51          6.0132  -5.9192  -2.8168 H              1 <1>                0.0000
     52 H52          5.9441  -3.0202  -2.9602 H              1 <1>                0.0000
     53 H53          7.6474  -3.7808  -1.3795 H              1 <1>                0.0000
     54 H54          7.6708  -5.5135  -0.9729 H              1 <1>                0.0000
     55 H55          8.4229  -6.0437  -3.2755 H              1 <1>                0.0000
     56 H56          8.3995  -4.3110  -3.6821 H              1 <1>                0.0000
@<TRIPOS>BOND
    1    1    2 1     
    2    1   26 1     
    3    1   27 1     
    4    1   28 1     
    5    2    3 1     
    6    2   29 1     
    7    2   30 1     
    8    3    4 2     
    9    3   31 1     
   10    4    5 1     
   11    4   32 1     
   12    5    6 1     
   13    5   33 1     
   14    5   34 1     
   15    6    7 2     
   16    6   35 1     
   17    7    8 1     
   18    7   36 1     
   19    8    9 1     
   20    8   37 1     
   21    8   38 1     
   22    9   10 2     
   23    9   39 1     
   24   10   11 1     
   25   10   40 1     
   26   11   12 1     
   27   11   41 1     
   28   11   42 1     
   29   12   13 2     
   30   12   43 1     
   31   13   14 1     
   32   13   44 1     
   33   14   15 1     
   34   14   45 1     
   35   14   46 1     
   36   15   16 2     
   37   15   47 1     
   38   16   17 1     
   39   16   48 1     
   40   17   18 2     
   41   17   49 1     
   42   18   19 1     
   43   18   50 1     
   44   19   20 1     
   45   19   21 1     
   46   19   51 1     
   47   20   52 1     
   48   21   22 1     
   49   21   53 1     
   50   21   54 1     
   51   22   23 1     
   52   22   55 1     
   53   22   56 1     
   54   23   24 ar    
   55   23   25 ar    
@<TRIPOS>SUBSTRUCTURE
      1 ****           1
@<TRIPOS>SET
DONOR_HYDROGENS      STATIC     ATOMS    <user>   **** ""
1 52
ATOM$RED        STATIC     ATOMS    COLORGROUP SYSTEM
1 52
