#       Name:                4M3
#       Creating user name   gbret
#       Creation time:       Fri Sep  9 00:19:55 2016


#       File generated by GOLD software.
#

@<TRIPOS>MOLECULE
4M3
    59    60     1
SMALL
NO_CHARGES


@<TRIPOS>ATOM
      1 N1           7.1929   7.7690   0.6357 N.pl3          1 <1>                0.0000
      2 C2           7.1068   6.4413   0.6606 C.2            1 <1>                0.0000
      3 N3           8.2113   5.7045   0.7503 N.pl3          1 <1>                0.0000
      4 H4           9.0791   6.1352   0.7976 H              1 <1>                0.0000
      5 H5           8.1485   4.7367   0.7684 H              1 <1>                0.0000
      6 C6           5.7814   5.7835   0.5885 C.ar           1 <1>                0.0000
      7 C7           4.6545   6.4274   1.1001 C.ar           1 <1>                0.0000
      8 C8           3.4213   5.8159   1.0328 C.ar           1 <1>                0.0000
      9 C9           3.2998   4.5523   0.4528 C.ar           1 <1>                0.0000
     10 C10          4.4274   3.9084  -0.0589 C.ar           1 <1>                0.0000
     11 C11          5.6595   4.5226   0.0040 C.ar           1 <1>                0.0000
     12 C12          1.9756   3.8951   0.3808 C.2            1 <1>                0.0000
     13 O13          0.9939   4.4558   0.8267 O.2            1 <1>                0.0000
     14 N14          1.8585   2.6748  -0.1793 N.am           1 <1>                0.0000
     15 C15          0.5478   2.0243  -0.2506 C.3            1 <1>                0.0000
     16 C16          0.6918   0.6596  -0.9271 C.3            1 <1>                0.0000
     17 C17         -0.6564  -0.0096  -1.0004 C.2            1 <1>                0.0000
     18 O18         -1.6361   0.5500  -0.5554 O.2            1 <1>                0.0000
     19 N19         -0.7736  -1.2298  -1.5605 N.am           1 <1>                0.0000
     20 C20         -2.0622  -1.9262  -1.5364 C.3            1 <1>                0.0000
     21 C21         -2.0952  -2.9767  -2.6483 C.3            1 <1>                0.0000
     22 C22         -2.0529  -2.2902  -3.9892 C.2            1 <1>                0.0000
     23 O23         -2.1036  -1.0738  -4.0532 O.co2          1 <1>                0.0000
     24 O24         -1.9681  -2.9514  -5.0101 O.co2          1 <1>                0.0000
     25 C25         -2.2432  -2.6019  -0.2015 C.2            1 <1>                0.0000
     26 O26         -1.3806  -2.5107   0.6462 O.2            1 <1>                0.0000
     27 N27         -3.3635  -3.3075   0.0502 N.am           1 <1>                0.0000
     28 C28         -3.5394  -3.9643   1.3479 C.3            1 <1>                0.0000
     29 C29         -4.1105  -2.9800   2.3358 C.2            1 <1>                0.0000
     30 O30         -4.5181  -1.8972   1.9513 O.co2          1 <1>                0.0000
     31 O31         -4.1650  -3.2665   3.5197 O.co2          1 <1>                0.0000
     32 C32         -4.4830  -5.1297   1.1972 C.ar           1 <1>                0.0000
     33 C33         -5.5946  -5.0182   0.3831 C.ar           1 <1>                0.0000
     34 C34         -6.4601  -6.0871   0.2449 C.ar           1 <1>                0.0000
     35 C35         -6.2139  -7.2677   0.9205 C.ar           1 <1>                0.0000
     36 C36         -5.1018  -7.3795   1.7340 C.ar           1 <1>                0.0000
     37 C37         -4.2340  -6.3120   1.8688 C.ar           1 <1>                0.0000
     38 H38          8.0607   8.1997   0.6829 H              1 <1>                0.0000
     39 H39          6.3881   8.3060   0.5663 H              1 <1>                0.0000
     40 H40          4.7486   7.4051   1.5492 H              1 <1>                0.0000
     41 H41          2.5490   6.3143   1.4291 H              1 <1>                0.0000
     42 H42          4.3337   2.9304  -0.5074 H              1 <1>                0.0000
     43 H43          6.5320   4.0244  -0.3920 H              1 <1>                0.0000
     44 H44          2.6420   2.2273  -0.5352 H              1 <1>                0.0000
     45 H45          0.1532   1.8907   0.7567 H              1 <1>                0.0000
     46 H46         -0.1355   2.6462  -0.8289 H              1 <1>                0.0000
     47 H47          1.0864   0.7932  -1.9343 H              1 <1>                0.0000
     48 H48          1.3751   0.0377  -0.3487 H              1 <1>                0.0000
     49 H49         -0.0046  -1.6469  -1.9796 H              1 <1>                0.0000
     50 H50         -2.8667  -1.2073  -1.6917 H              1 <1>                0.0000
     51 H51         -1.2330  -3.6364  -2.5505 H              1 <1>                0.0000
     52 H52         -3.0113  -3.5618  -2.5684 H              1 <1>                0.0000
     53 H53         -4.0534  -3.3805  -0.6278 H              1 <1>                0.0000
     54 H54         -2.5748  -4.3221   1.7078 H              1 <1>                0.0000
     55 H55         -5.7870  -4.0958  -0.1448 H              1 <1>                0.0000
     56 H56         -7.3290  -5.9998  -0.3907 H              1 <1>                0.0000
     57 H57         -6.8905  -8.1026   0.8131 H              1 <1>                0.0000
     58 H58         -4.9096  -8.3017   2.2621 H              1 <1>                0.0000
     59 H59         -3.3651  -6.3993   2.5044 H              1 <1>                0.0000
@<TRIPOS>BOND
    1    1    2 2     
    2    1   38 1     
    3    1   39 1     
    4    2    3 1     
    5    2    6 1     
    6    3    4 1     
    7    3    5 1     
    8    6   11 ar    
    9    6    7 ar    
   10    7    8 ar    
   11    7   40 1     
   12    8    9 ar    
   13    8   41 1     
   14    9   10 ar    
   15    9   12 1     
   16   10   11 ar    
   17   10   42 1     
   18   11   43 1     
   19   12   13 2     
   20   12   14 am    
   21   14   15 1     
   22   14   44 1     
   23   15   16 1     
   24   15   45 1     
   25   15   46 1     
   26   16   17 1     
   27   16   47 1     
   28   16   48 1     
   29   17   18 2     
   30   17   19 am    
   31   19   20 1     
   32   19   49 1     
   33   20   21 1     
   34   20   25 1     
   35   20   50 1     
   36   21   22 1     
   37   21   51 1     
   38   21   52 1     
   39   22   23 ar    
   40   22   24 ar    
   41   25   26 2     
   42   25   27 am    
   43   27   28 1     
   44   27   53 1     
   45   28   29 1     
   46   28   32 1     
   47   28   54 1     
   48   29   30 ar    
   49   29   31 ar    
   50   32   37 ar    
   51   32   33 ar    
   52   33   34 ar    
   53   33   55 1     
   54   34   35 ar    
   55   34   56 1     
   56   35   36 ar    
   57   35   57 1     
   58   36   37 ar    
   59   36   58 1     
   60   37   59 1     
@<TRIPOS>SUBSTRUCTURE
      1 ****           1
@<TRIPOS>SET
DONOR_HYDROGENS      STATIC     ATOMS    <user>   **** ""
7 38 39 4 5 44 49 53
ATOM$RED        STATIC     ATOMS    COLORGROUP SYSTEM
7 38 39 4 5 44 49 53
