#       Name:                4MW
#       Creating user name   gbret
#       Creation time:       Fri Sep  9 00:21:47 2016


#       File generated by GOLD software.
#

@<TRIPOS>MOLECULE
4MW
    92    98     1
SMALL
NO_CHARGES


@<TRIPOS>ATOM
      1 C1           6.8730   1.8831  -3.7407 C.3            1 <1>                0.0000
      2 C2           6.7942   0.3831  -3.8622 C.2            1 <1>                0.0000
      3 S3           6.7839  -0.4950  -5.3789 S.3            1 <1>                0.0000
      4 C4           6.6682  -2.0053  -4.5942 C.2            1 <1>                0.0000
      5 C5           6.6634  -1.8513  -3.2238 C.2            1 <1>                0.0000
      6 C6           6.7290  -0.4518  -2.8391 C.2            1 <1>                0.0000
      7 C7           6.7152   0.0073  -1.4038 C.3            1 <1>                0.0000
      8 C8           6.6407  -2.9623  -2.2517 C.2            1 <1>                0.0000
      9 N9           5.9819  -4.0684  -2.3776 N.2            1 <1>                0.0000
     10 C10          5.0694  -4.3168  -3.4961 C.3            1 <1>                0.0000
     11 C11          3.9950  -3.2281  -3.5309 C.3            1 <1>                0.0000
     12 C12          3.1419  -3.3243  -2.2923 C.2            1 <1>                0.0000
     13 O13          3.3708  -4.1794  -1.4633 O.2            1 <1>                0.0000
     14 N14          2.1247  -2.4600  -2.1059 N.am           1 <1>                0.0000
     15 C15          1.2955  -2.5535  -0.9018 C.3            1 <1>                0.0000
     16 C16          0.2210  -1.4648  -0.9367 C.3            1 <1>                0.0000
     17 C17         -0.6450  -1.5624   0.3208 C.3            1 <1>                0.0000
     18 C18         -1.7194  -0.4737   0.2859 C.3            1 <1>                0.0000
     19 N19         -2.5487  -0.5672   1.4900 N.am           1 <1>                0.0000
     20 C20         -3.5659   0.2970   1.6765 C.2            1 <1>                0.0000
     21 O21         -3.7948   1.1522   0.8474 O.2            1 <1>                0.0000
     22 C22         -4.4189   0.2009   2.9151 C.3            1 <1>                0.0000
     23 O23         -5.4224   1.2177   2.8825 O.3            1 <1>                0.0000
     24 C24         -6.2801   1.2700   3.9314 C.ar           1 <1>                0.0000
     25 C25         -6.1593   0.3622   4.9829 C.ar           1 <1>                0.0000
     26 C26         -7.0295   0.4121   6.0512 C.ar           1 <1>                0.0000
     27 C27         -8.0381   1.3650   6.0965 C.ar           1 <1>                0.0000
     28 C28         -8.1741   2.2747   5.0624 C.ar           1 <1>                0.0000
     29 C29         -9.1022   3.3907   4.7844 C.2            1 <1>                0.0000
     30 O30        -10.0165   3.7481   5.4996 O.2            1 <1>                0.0000
     31 N31         -8.7638   3.9443   3.6058 N.am           1 <1>                0.0000
     32 C32         -9.4568   5.0812   2.9948 C.3            1 <1>                0.0000
     33 C33        -10.9263   4.7176   2.7570 C.3            1 <1>                0.0000
     34 C34        -11.6551   5.9554   2.2232 C.3            1 <1>                0.0000
     35 C35        -11.4634   7.0961   3.1874 C.2            1 <1>                0.0000
     36 O36        -12.3184   7.9510   3.2743 O.2            1 <1>                0.0000
     37 N37        -10.3651   7.1842   3.9525 N.am           1 <1>                0.0000
     38 C38         -9.3846   6.2694   3.9170 C.2            1 <1>                0.0000
     39 O39         -8.4215   6.4020   4.6413 O.2            1 <1>                0.0000
     40 C40         -7.7052   3.3169   3.0625 C.2            1 <1>                0.0000
     41 O41         -7.1807   3.5996   2.0037 O.2            1 <1>                0.0000
     42 C42         -7.2832   2.2335   3.9686 C.ar           1 <1>                0.0000
     43 C43          5.8499  -4.2953  -4.7840 C.2            1 <1>                0.0000
     44 N44          5.9744  -5.2516  -5.6588 N.2            1 <1>                0.0000
     45 N45          6.7338  -4.8618  -6.6238 N.2            1 <1>                0.0000
     46 C46          7.1285  -3.6316  -6.4127 C.2            1 <1>                0.0000
     47 C47          8.0298  -2.8117  -7.2994 C.3            1 <1>                0.0000
     48 N48          6.5700  -3.2387  -5.2430 N.pl3          1 <1>                0.0000
     49 C49          7.4464  -2.7951  -1.0196 C.ar           1 <1>                0.0000
     50 C50          7.0191  -3.3666   0.1788 C.ar           1 <1>                0.0000
     51 C51          7.7730  -3.2079   1.3230 C.ar           1 <1>                0.0000
     52 C52          8.9521  -2.4827   1.2833 C.ar           1 <1>                0.0000
     53 Cl53         9.8961  -2.2869   2.7270 Cl             1 <1>                0.0000
     54 C54          9.3811  -1.9136   0.0960 C.ar           1 <1>                0.0000
     55 C55          8.6376  -2.0707  -1.0552 C.ar           1 <1>                0.0000
     56 H56          7.9179   2.1892  -3.6914 H              1 <1>                0.0000
     57 H57          6.4002   2.3432  -4.6084 H              1 <1>                0.0000
     58 H58          6.3578   2.2018  -2.8345 H              1 <1>                0.0000
     59 H59          7.7388   0.1560  -1.0600 H              1 <1>                0.0000
     60 H60          6.1664   0.9460  -1.3278 H              1 <1>                0.0000
     61 H61          6.2304  -0.7481  -0.7854 H              1 <1>                0.0000
     62 H62          4.5969  -5.2911  -3.3713 H              1 <1>                0.0000
     63 H63          4.4714  -2.2485  -3.5688 H              1 <1>                0.0000
     64 H64          3.3700  -3.3625  -4.4138 H              1 <1>                0.0000
     65 H65          1.9417  -1.7761  -2.7689 H              1 <1>                0.0000
     66 H66          0.8190  -3.5331  -0.8640 H              1 <1>                0.0000
     67 H67          1.9204  -2.4191  -0.0189 H              1 <1>                0.0000
     68 H68          0.6975  -0.4852  -0.9745 H              1 <1>                0.0000
     69 H69         -0.4039  -1.5992  -1.8196 H              1 <1>                0.0000
     70 H70         -1.1215  -2.5420   0.3587 H              1 <1>                0.0000
     71 H71         -0.0201  -1.4280   1.2037 H              1 <1>                0.0000
     72 H72         -1.2429   0.5059   0.2481 H              1 <1>                0.0000
     73 H73         -2.3443  -0.6081  -0.5970 H              1 <1>                0.0000
     74 H74         -2.3656  -1.2511   2.1531 H              1 <1>                0.0000
     75 H75         -4.8954  -0.7787   2.9529 H              1 <1>                0.0000
     76 H76         -3.7940   0.3353   3.7980 H              1 <1>                0.0000
     77 H77         -5.3796  -0.3848   4.9601 H              1 <1>                0.0000
     78 H78         -6.9258  -0.2965   6.8597 H              1 <1>                0.0000
     79 H79         -8.7156   1.3962   6.9370 H              1 <1>                0.0000
     80 H80         -8.9834   5.3284   2.0445 H              1 <1>                0.0000
     81 H81        -10.9903   3.9115   2.0261 H              1 <1>                0.0000
     82 H82        -11.3816   4.4012   3.6955 H              1 <1>                0.0000
     83 H83        -11.2456   6.2279   1.2505 H              1 <1>                0.0000
     84 H84        -12.7185   5.7374   2.1237 H              1 <1>                0.0000
     85 H85        -10.2763   7.9392   4.5550 H              1 <1>                0.0000
     86 H86          7.4267  -2.2637  -8.0232 H              1 <1>                0.0000
     87 H87          8.5956  -2.1069  -6.6901 H              1 <1>                0.0000
     88 H88          8.7192  -3.4715  -7.8263 H              1 <1>                0.0000
     89 H89          6.0995  -3.9320   0.2109 H              1 <1>                0.0000
     90 H90          7.4429  -3.6497   2.2516 H              1 <1>                0.0000
     91 H91         10.3016  -1.3493   0.0704 H              1 <1>                0.0000
     92 H92          8.9730  -1.6264  -1.9807 H              1 <1>                0.0000
@<TRIPOS>BOND
    1    1    2 1     
    2    1   56 1     
    3    1   57 1     
    4    1   58 1     
    5    2    6 2     
    6    2    3 1     
    7    3    4 1     
    8    4   48 1     
    9    4    5 2     
   10    5    6 1     
   11    5    8 1     
   12    6    7 1     
   13    7   59 1     
   14    7   60 1     
   15    7   61 1     
   16    8    9 2     
   17    8   49 1     
   18    9   10 1     
   19   10   11 1     
   20   10   43 1     
   21   10   62 1     
   22   11   12 1     
   23   11   63 1     
   24   11   64 1     
   25   12   13 2     
   26   12   14 am    
   27   14   15 1     
   28   14   65 1     
   29   15   16 1     
   30   15   66 1     
   31   15   67 1     
   32   16   17 1     
   33   16   68 1     
   34   16   69 1     
   35   17   18 1     
   36   17   70 1     
   37   17   71 1     
   38   18   19 1     
   39   18   72 1     
   40   18   73 1     
   41   19   20 am    
   42   19   74 1     
   43   20   21 2     
   44   20   22 1     
   45   22   23 1     
   46   22   75 1     
   47   22   76 1     
   48   23   24 1     
   49   24   42 ar    
   50   24   25 ar    
   51   25   26 ar    
   52   25   77 1     
   53   26   27 ar    
   54   26   78 1     
   55   27   28 ar    
   56   27   79 1     
   57   28   42 ar    
   58   28   29 1     
   59   29   30 2     
   60   29   31 am    
   61   31   32 1     
   62   31   40 am    
   63   32   38 1     
   64   32   33 1     
   65   32   80 1     
   66   33   34 1     
   67   33   81 1     
   68   33   82 1     
   69   34   35 1     
   70   34   83 1     
   71   34   84 1     
   72   35   36 2     
   73   35   37 am    
   74   37   38 am    
   75   37   85 1     
   76   38   39 2     
   77   40   41 2     
   78   40   42 1     
   79   43   48 1     
   80   43   44 2     
   81   44   45 1     
   82   45   46 2     
   83   46   47 1     
   84   46   48 1     
   85   47   86 1     
   86   47   87 1     
   87   47   88 1     
   88   49   55 ar    
   89   49   50 ar    
   90   50   51 ar    
   91   50   89 1     
   92   51   52 ar    
   93   51   90 1     
   94   52   53 1     
   95   52   54 ar    
   96   54   55 ar    
   97   54   91 1     
   98   55   92 1     
@<TRIPOS>SUBSTRUCTURE
      1 ****           1
@<TRIPOS>SET
DONOR_HYDROGENS      STATIC     ATOMS    <user>   **** ""
3 65 74 85
ATOM$RED        STATIC     ATOMS    COLORGROUP SYSTEM
3 65 74 85
