#       Name:                4N6
#       Creating user name   gbret
#       Creation time:       Fri Sep  9 00:22:11 2016


#       File generated by GOLD software.
#

@<TRIPOS>MOLECULE
4N6
    24    25     1
SMALL
NO_CHARGES


@<TRIPOS>ATOM
      1 O1           3.1025   1.8079   1.3526 O.3            1 <1>                0.0000
      2 C2           3.1219   0.3790   1.3447 C.3            1 <1>                0.0000
      3 C3           1.6865  -0.1505   1.3556 C.3            1 <1>                0.0000
      4 N4           1.0144   0.2348   0.1122 N.pl3          1 <1>                0.0000
      5 C5          -0.3101  -0.1372  -0.1079 C.ar           1 <1>                0.0000
      6 C6          -0.9793  -0.8775   0.8833 C.ar           1 <1>                0.0000
      7 C7          -2.2686  -1.2716   0.7318 C.ar           1 <1>                0.0000
      8 Cl8         -3.0652  -2.1846   1.9750 Cl             1 <1>                0.0000
      9 C9          -2.9717  -0.9151  -0.4903 C.ar           1 <1>                0.0000
     10 N10         -4.1529  -1.0765  -1.0272 N.2            1 <1>                0.0000
     11 O11         -4.1719  -0.5376  -2.1159 O.3            1 <1>                0.0000
     12 N12         -3.1450   0.0109  -2.4632 N.2            1 <1>                0.0000
     13 C13         -2.2435  -0.1325  -1.5219 C.ar           1 <1>                0.0000
     14 C14         -0.9107   0.2343  -1.2726 C.ar           1 <1>                0.0000
     15 N15         -0.1588   1.0219  -2.2758 N.pl3          1 <1>                0.0000
     16 O16         -0.1802   2.2391  -2.2350 O.2            1 <1>                0.0000
     17 O17          0.4811   0.4527  -3.1418 O.2            1 <1>                0.0000
     18 H18          3.9804   2.2132   1.3464 H              1 <1>                0.0000
     19 H19          3.6321   0.0275   0.4479 H              1 <1>                0.0000
     20 H20          3.6491   0.0180   2.2278 H              1 <1>                0.0000
     21 H21          1.7008  -1.2372   1.4392 H              1 <1>                0.0000
     22 H22          1.1497   0.2722   2.2048 H              1 <1>                0.0000
     23 H23          1.4915   0.7489  -0.5579 H              1 <1>                0.0000
     24 H24         -0.4525  -1.1396   1.7890 H              1 <1>                0.0000
@<TRIPOS>BOND
    1    1    2 1     
    2    1   18 1     
    3    2    3 1     
    4    2   19 1     
    5    2   20 1     
    6    3    4 1     
    7    3   21 1     
    8    3   22 1     
    9    4    5 1     
   10    4   23 1     
   11    5   14 ar    
   12    5    6 ar    
   13    6    7 ar    
   14    6   24 1     
   15    7    8 1     
   16    7    9 ar    
   17    9   13 ar    
   18    9   10 2     
   19   10   11 1     
   20   11   12 1     
   21   12   13 2     
   22   13   14 ar    
   23   14   15 1     
   24   15   16 2     
   25   15   17 2     
@<TRIPOS>SUBSTRUCTURE
      1 ****           1
@<TRIPOS>SET
DONOR_HYDROGENS      STATIC     ATOMS    <user>   **** ""
2 18 23
ATOM$RED        STATIC     ATOMS    COLORGROUP SYSTEM
2 18 23
