#       Name:                4PH
#       Creating user name   gbret
#       Creation time:       Fri Sep  9 00:26:41 2016


#       File generated by GOLD software.
#

@<TRIPOS>MOLECULE
4PH
    26    26     1
SMALL
NO_CHARGES


@<TRIPOS>ATOM
      1 C1          -0.6559   4.0668  -0.1502 C.3            1 <1>                0.0000
      2 C2          -0.6354   2.5599  -0.1585 C.ar           1 <1>                0.0000
      3 C3          -0.6318   1.8753  -1.3594 C.ar           1 <1>                0.0000
      4 C4          -0.6130   0.4931  -1.3670 C.ar           1 <1>                0.0000
      5 C5          -0.5975  -0.2045  -0.1737 C.ar           1 <1>                0.0000
      6 C6          -0.5775  -1.7113  -0.1820 C.3            1 <1>                0.0000
      7 C7           0.8716  -2.2021  -0.1924 C.3            1 <1>                0.0000
      8 N8           1.5298  -1.8117   1.0614 N.4            1 <1>                0.0000
      9 H9           2.4855  -2.1353   1.0546 H              1 <1>                0.0000
     10 H10          1.5158  -0.8066   1.1499 H              1 <1>                0.0000
     11 H11          1.0404  -2.2248   1.8411 H              1 <1>                0.0000
     12 C12          0.8926  -3.7032  -0.3245 C.2            1 <1>                0.0000
     13 O13          0.5625  -4.2274  -1.3746 O.co2          1 <1>                0.0000
     14 O14          1.2396  -4.3934   0.6187 O.co2          1 <1>                0.0000
     15 C15         -0.5997   0.4801   1.0272 C.ar           1 <1>                0.0000
     16 C16         -0.6146   1.8624   1.0348 C.ar           1 <1>                0.0000
     17 H17          0.3667   4.4441  -0.1579 H              1 <1>                0.0000
     18 H18         -1.1830   4.4279  -1.0333 H              1 <1>                0.0000
     19 H19         -1.1661   4.4183   0.7466 H              1 <1>                0.0000
     20 H20         -0.6439   2.4204  -2.2917 H              1 <1>                0.0000
     21 H21         -0.6109  -0.0417  -2.3053 H              1 <1>                0.0000
     22 H22         -1.0817  -2.0862   0.7087 H              1 <1>                0.0000
     23 H23         -1.0913  -2.0766  -1.0712 H              1 <1>                0.0000
     24 H24          1.4003  -1.7558  -1.0347 H              1 <1>                0.0000
     25 H25         -0.5872  -0.0649   1.9595 H              1 <1>                0.0000
     26 H26         -0.6164   2.3973   1.9730 H              1 <1>                0.0000
@<TRIPOS>BOND
    1    1    2 1     
    2    1   17 1     
    3    1   18 1     
    4    1   19 1     
    5    2   16 ar    
    6    2    3 ar    
    7    3    4 ar    
    8    3   20 1     
    9    4    5 ar    
   10    4   21 1     
   11    5    6 1     
   12    5   15 ar    
   13    6    7 1     
   14    6   22 1     
   15    6   23 1     
   16    7    8 1     
   17    7   12 1     
   18    7   24 1     
   19    8    9 1     
   20    8   10 1     
   21    8   11 1     
   22   12   13 ar    
   23   12   14 ar    
   24   15   16 ar    
   25   15   25 1     
   26   16   26 1     
@<TRIPOS>SUBSTRUCTURE
      1 ****           1
@<TRIPOS>SET
DONOR_HYDROGENS      STATIC     ATOMS    <user>   **** ""
3 9 10 11
ATOM$RED        STATIC     ATOMS    COLORGROUP SYSTEM
3 9 10 11
