#       Name:                4Q1
#       Creating user name   gbret
#       Creation time:       Fri Sep  9 00:27:49 2016


#       File generated by GOLD software.
#

@<TRIPOS>MOLECULE
4Q1
    68    72     1
SMALL
NO_CHARGES


@<TRIPOS>ATOM
      1 C1          -2.0558   6.8863   0.8364 C.3            1 <1>                0.0000
      2 O2          -2.2884   5.5828   1.3738 O.3            1 <1>                0.0000
      3 C3          -1.6665   4.5418   0.7592 C.ar           1 <1>                0.0000
      4 C4          -0.8486   4.7981  -0.3349 C.ar           1 <1>                0.0000
      5 C5          -0.1910   3.7958  -1.0030 C.ar           1 <1>                0.0000
      6 C6          -0.3794   2.4921  -0.5336 C.ar           1 <1>                0.0000
      7 C7           0.1330   1.2088  -0.9710 C.2            1 <1>                0.0000
      8 C8           1.0616   0.9179  -2.1239 C.3            1 <1>                0.0000
      9 O9           2.1193   1.8787  -2.1430 O.3            1 <1>                0.0000
     10 C10          1.6454  -0.4880  -1.9339 C.3            1 <1>                0.0000
     11 O11          2.5685  -0.4549  -0.8436 O.3            1 <1>                0.0000
     12 N12          0.5650  -1.4071  -1.5776 N.am           1 <1>                0.0000
     13 C13         -0.0879  -1.2046  -0.2644 C.3            1 <1>                0.0000
     14 C14          0.8381  -1.6374   0.8430 C.2            1 <1>                0.0000
     15 C15          0.4978  -2.6257   1.6327 C.2            1 <1>                0.0000
     16 C16         -0.8246  -3.3224   1.4408 C.3            1 <1>                0.0000
     17 C17          1.4287  -3.0658   2.7330 C.3            1 <1>                0.0000
     18 C18         -0.3822   0.2747  -0.1433 C.2            1 <1>                0.0000
     19 N19         -1.1882   0.8727   0.7905 N.pl3          1 <1>                0.0000
     20 C20         -1.9147   0.1702   1.8511 C.3            1 <1>                0.0000
     21 C21         -1.0475   0.0821   3.0805 C.2            1 <1>                0.0000
     22 C22         -1.4564   0.6061   4.2094 C.2            1 <1>                0.0000
     23 C23         -2.7878   1.3090   4.2753 C.3            1 <1>                0.0000
     24 C24         -0.5953   0.5059   5.4421 C.3            1 <1>                0.0000
     25 C25         -1.2113   2.2220   0.5830 C.ar           1 <1>                0.0000
     26 C26         -1.8644   3.2573   1.2483 C.ar           1 <1>                0.0000
     27 C27          0.1286  -2.3918  -2.3685 C.2            1 <1>                0.0000
     28 O28         -0.7694  -3.0985  -1.9623 O.2            1 <1>                0.0000
     29 C29          0.6874  -2.6692  -3.7277 C.3            1 <1>                0.0000
     30 C30          1.0584  -4.1616  -3.8750 C.3            1 <1>                0.0000
     31 C31          2.1645  -4.1341  -4.9578 C.3            1 <1>                0.0000
     32 C32          2.7146  -2.6933  -4.9311 C.3            1 <1>                0.0000
     33 N33          1.9828  -1.9772  -3.8791 N.am           1 <1>                0.0000
     34 C34          2.3775  -0.9149  -3.1684 C.2            1 <1>                0.0000
     35 O35          3.3482  -0.2847  -3.5313 O.2            1 <1>                0.0000
     36 H36         -0.9906   7.1133   0.8819 H              1 <1>                0.0000
     37 H37         -2.3897   6.9166  -0.2008 H              1 <1>                0.0000
     38 H38         -2.6095   7.6232   1.4181 H              1 <1>                0.0000
     39 H39         -0.7270   5.8176  -0.6698 H              1 <1>                0.0000
     40 H40          0.4425   4.0043  -1.8525 H              1 <1>                0.0000
     41 H41          0.5075   0.9644  -3.0615 H              1 <1>                0.0000
     42 H42          1.8189   2.7923  -2.2440 H              1 <1>                0.0000
     43 H43          3.3081   0.1545  -0.9728 H              1 <1>                0.0000
     44 H44         -1.0155  -1.7751  -0.2179 H              1 <1>                0.0000
     45 H45          1.7823  -1.1329   0.9855 H              1 <1>                0.0000
     46 H46         -0.7224  -4.0914   0.6751 H              1 <1>                0.0000
     47 H47         -1.1322  -3.7830   2.3796 H              1 <1>                0.0000
     48 H48         -1.5758  -2.5967   1.1289 H              1 <1>                0.0000
     49 H49          1.2085  -2.5050   3.6413 H              1 <1>                0.0000
     50 H50          1.2911  -4.1306   2.9211 H              1 <1>                0.0000
     51 H51          2.4599  -2.8802   2.4324 H              1 <1>                0.0000
     52 H52         -2.8278   0.7159   2.0890 H              1 <1>                0.0000
     53 H53         -2.1692  -0.8343   1.5133 H              1 <1>                0.0000
     54 H54         -0.0890  -0.4130   3.0309 H              1 <1>                0.0000
     55 H55         -3.5776   0.5764   4.4415 H              1 <1>                0.0000
     56 H56         -2.7795   2.0267   5.0956 H              1 <1>                0.0000
     57 H57         -2.9693   1.8322   3.3365 H              1 <1>                0.0000
     58 H58          0.3620   0.9931   5.2572 H              1 <1>                0.0000
     59 H59         -1.0971   0.9958   6.2766 H              1 <1>                0.0000
     60 H60         -0.4281  -0.5436   5.6842 H              1 <1>                0.0000
     61 H61         -2.4973   3.0693   2.1030 H              1 <1>                0.0000
     62 H62         -0.0118  -2.3572  -4.5035 H              1 <1>                0.0000
     63 H63          1.4464  -4.5575  -2.9365 H              1 <1>                0.0000
     64 H64          0.2000  -4.7412  -4.2144 H              1 <1>                0.0000
     65 H65          2.9531  -4.8451  -4.7117 H              1 <1>                0.0000
     66 H66          1.7418  -4.3599  -5.9368 H              1 <1>                0.0000
     67 H67          3.7800  -2.7057  -4.7013 H              1 <1>                0.0000
     68 H68          2.5466  -2.2126  -5.8948 H              1 <1>                0.0000
@<TRIPOS>BOND
    1    1    2 1     
    2    1   36 1     
    3    1   37 1     
    4    1   38 1     
    5    2    3 1     
    6    3   26 ar    
    7    3    4 ar    
    8    4    5 ar    
    9    4   39 1     
   10    5    6 ar    
   11    5   40 1     
   12    6   25 ar    
   13    6    7 1     
   14    7   18 2     
   15    7    8 1     
   16    8    9 1     
   17    8   10 1     
   18    8   41 1     
   19    9   42 1     
   20   10   34 1     
   21   10   11 1     
   22   10   12 1     
   23   11   43 1     
   24   12   13 1     
   25   12   27 am    
   26   13   14 1     
   27   13   18 1     
   28   13   44 1     
   29   14   15 2     
   30   14   45 1     
   31   15   16 1     
   32   15   17 1     
   33   16   46 1     
   34   16   47 1     
   35   16   48 1     
   36   17   49 1     
   37   17   50 1     
   38   17   51 1     
   39   18   19 1     
   40   19   20 1     
   41   19   25 1     
   42   20   21 1     
   43   20   52 1     
   44   20   53 1     
   45   21   22 2     
   46   21   54 1     
   47   22   23 1     
   48   22   24 1     
   49   23   55 1     
   50   23   56 1     
   51   23   57 1     
   52   24   58 1     
   53   24   59 1     
   54   24   60 1     
   55   25   26 ar    
   56   26   61 1     
   57   27   28 2     
   58   27   29 1     
   59   29   33 1     
   60   29   30 1     
   61   29   62 1     
   62   30   31 1     
   63   30   63 1     
   64   30   64 1     
   65   31   32 1     
   66   31   65 1     
   67   31   66 1     
   68   32   33 1     
   69   32   67 1     
   70   32   68 1     
   71   33   34 am    
   72   34   35 2     
@<TRIPOS>SUBSTRUCTURE
      1 ****           1
@<TRIPOS>SET
DONOR_HYDROGENS      STATIC     ATOMS    <user>   **** ""
2 42 43
ATOM$RED        STATIC     ATOMS    COLORGROUP SYSTEM
2 42 43
