#       Name:                4RD
#       Creating user name   gbret
#       Creation time:       Fri Sep  9 00:29:57 2016


#       File generated by GOLD software.
#

@<TRIPOS>MOLECULE
4RD
    46    49     1
SMALL
NO_CHARGES


@<TRIPOS>ATOM
      1 F1          -2.1487  -9.6669   0.4161 F              1 <1>                0.0000
      2 C2          -2.1605  -8.3164   0.3794 C.ar           1 <1>                0.0000
      3 C3          -3.3716  -7.6445   0.4650 C.ar           1 <1>                0.0000
      4 C4          -3.3859  -6.2599   0.4276 C.ar           1 <1>                0.0000
      5 C5          -2.1754  -5.5934   0.3047 C.ar           1 <1>                0.0000
      6 N6          -1.8112  -4.2585   0.2361 N.pl3          1 <1>                0.0000
      7 H7          -2.4095  -3.4957   0.2668 H              1 <1>                0.0000
      8 C8          -0.4525  -4.2185   0.1179 C.2            1 <1>                0.0000
      9 N9           0.3001  -3.0689   0.0214 N.pl3          1 <1>                0.0000
     10 C10         -0.3568  -1.7596   0.0419 C.3            1 <1>                0.0000
     11 C11          0.6980  -0.6579  -0.0793 C.3            1 <1>                0.0000
     12 C12          0.0120   0.7095  -0.0579 C.3            1 <1>                0.0000
     13 N13          1.0247   1.7672  -0.1743 N.4            1 <1>                0.0000
     14 H14          1.6181   1.7561   0.6418 H              1 <1>                0.0000
     15 H15          1.5839   1.6082  -0.9989 H              1 <1>                0.0000
     16 C16          0.3594   3.0728  -0.2781 C.3            1 <1>                0.0000
     17 C17         -0.3818   3.3720   1.0274 C.3            1 <1>                0.0000
     18 C18         -0.8134   4.8440   1.0100 C.3            1 <1>                0.0000
     19 O19          0.3606   5.6574   1.0113 O.3            1 <1>                0.0000
     20 C20          1.3367   5.3647   0.1122 C.ar           1 <1>                0.0000
     21 C21          2.3032   6.3305  -0.1563 C.ar           1 <1>                0.0000
     22 Cl22         2.2373   7.8675   0.6480 Cl             1 <1>                0.0000
     23 C23          3.3140   6.0694  -1.0597 C.ar           1 <1>                0.0000
     24 C24          3.3674   4.8442  -1.7010 C.ar           1 <1>                0.0000
     25 Cl25         4.6394   4.5121  -2.8348 Cl             1 <1>                0.0000
     26 C26          2.4078   3.8851  -1.4381 C.ar           1 <1>                0.0000
     27 C27          1.3908   4.1426  -0.5333 C.ar           1 <1>                0.0000
     28 N28          0.0301  -5.4377   0.1103 N.2            1 <1>                0.0000
     29 C29         -0.9831  -6.3328   0.2226 C.ar           1 <1>                0.0000
     30 N30         -1.0211  -7.6636   0.2685 N.ar           1 <1>                0.0000
     31 H31         -4.2951  -8.1963   0.5596 H              1 <1>                0.0000
     32 H32         -4.3152  -5.7135   0.4921 H              1 <1>                0.0000
     33 H33          1.2649  -3.1263  -0.0602 H              1 <1>                0.0000
     34 H34         -1.0532  -1.6893  -0.7936 H              1 <1>                0.0000
     35 H35         -0.9005  -1.6405   0.9791 H              1 <1>                0.0000
     36 H36          1.3944  -0.7282   0.7562 H              1 <1>                0.0000
     37 H37          1.2417  -0.7770  -1.0165 H              1 <1>                0.0000
     38 H38         -0.6845   0.7797  -0.8934 H              1 <1>                0.0000
     39 H39         -0.5317   0.8286   0.8793 H              1 <1>                0.0000
     40 H40         -0.3533   3.0522  -1.1025 H              1 <1>                0.0000
     41 H41         -1.2608   2.7323   1.1057 H              1 <1>                0.0000
     42 H42          0.2800   3.1932   1.8748 H              1 <1>                0.0000
     43 H43         -1.3980   5.0446   0.1121 H              1 <1>                0.0000
     44 H44         -1.4118   5.0616   1.8946 H              1 <1>                0.0000
     45 H45          4.0621   6.8206  -1.2659 H              1 <1>                0.0000
     46 H46          2.4508   2.9302  -1.9408 H              1 <1>                0.0000
@<TRIPOS>BOND
    1    1    2 1     
    2    2   30 ar    
    3    2    3 ar    
    4    3    4 ar    
    5    3   31 1     
    6    4    5 ar    
    7    4   32 1     
    8    5   29 ar    
    9    5    6 1     
   10    6    7 1     
   11    6    8 1     
   12    8    9 1     
   13    8   28 2     
   14    9   10 1     
   15    9   33 1     
   16   10   11 1     
   17   10   34 1     
   18   10   35 1     
   19   11   12 1     
   20   11   36 1     
   21   11   37 1     
   22   12   13 1     
   23   12   38 1     
   24   12   39 1     
   25   13   14 1     
   26   13   15 1     
   27   13   16 1     
   28   16   27 1     
   29   16   17 1     
   30   16   40 1     
   31   17   18 1     
   32   17   41 1     
   33   17   42 1     
   34   18   19 1     
   35   18   43 1     
   36   18   44 1     
   37   19   20 1     
   38   20   27 ar    
   39   20   21 ar    
   40   21   22 1     
   41   21   23 ar    
   42   23   24 ar    
   43   23   45 1     
   44   24   25 1     
   45   24   26 ar    
   46   26   27 ar    
   47   26   46 1     
   48   28   29 1     
   49   29   30 ar    
@<TRIPOS>SUBSTRUCTURE
      1 ****           1
@<TRIPOS>SET
DONOR_HYDROGENS      STATIC     ATOMS    <user>   **** ""
4 7 33 14 15
ATOM$RED        STATIC     ATOMS    COLORGROUP SYSTEM
4 7 33 14 15
