#       Name:                4RX
#       Creating user name   gbret
#       Creation time:       Fri Sep  9 00:31:11 2016


#       File generated by GOLD software.
#

@<TRIPOS>MOLECULE
4RX
    45    48     1
SMALL
NO_CHARGES


@<TRIPOS>ATOM
      1 N1           1.5567   5.8828   0.5319 N.pl3          1 <1>                0.0000
      2 C2           1.5754   4.5072   0.5243 C.2            1 <1>                0.0000
      3 N3           0.4524   3.8980   0.5266 N.pl3          1 <1>                0.0000
      4 H4          -0.3375   4.4595   0.4850 H              1 <1>                0.0000
      5 C5           0.2155   2.4647   0.5834 C.3            1 <1>                0.0000
      6 C6          -1.0517   2.1160  -0.1986 C.3            1 <1>                0.0000
      7 C7          -1.3291   0.6158  -0.0882 C.3            1 <1>                0.0000
      8 C8          -0.1446  -0.1623  -0.6655 C.3            1 <1>                0.0000
      9 C9           1.1186   0.1775   0.1272 C.3            1 <1>                0.0000
     10 C10          1.4018   1.6781   0.0248 C.3            1 <1>                0.0000
     11 C11          2.6449   2.0090   0.8581 C.3            1 <1>                0.0000
     12 C12          2.3897   1.7967   2.3403 C.3            1 <1>                0.0000
     13 O13          1.2050   2.4664   2.7671 O.3            1 <1>                0.0000
     14 C14          0.0265   2.0680   2.0572 C.3            1 <1>                0.0000
     15 S15          3.1420   3.7116   0.5051 S.3            1 <1>                0.0000
     16 N16         -0.4103  -1.5998  -0.5694 N.am           1 <1>                0.0000
     17 C17         -1.1203  -2.2197  -1.5327 C.2            1 <1>                0.0000
     18 O18         -1.5403  -1.5862  -2.4812 O.2            1 <1>                0.0000
     19 C19         -1.3885  -3.6705  -1.4356 C.ar           1 <1>                0.0000
     20 C20         -0.9125  -4.3998  -0.3446 C.ar           1 <1>                0.0000
     21 C21         -1.1662  -5.7530  -0.2592 C.ar           1 <1>                0.0000
     22 C22         -1.8905  -6.3885  -1.2521 C.ar           1 <1>                0.0000
     23 C23         -2.3653  -5.6717  -2.3373 C.ar           1 <1>                0.0000
     24 Cl24        -3.2726  -6.4780  -3.5784 Cl             1 <1>                0.0000
     25 C25         -2.1233  -4.3153  -2.4313 C.ar           1 <1>                0.0000
     26 H26          2.3901   6.3791   0.5266 H              1 <1>                0.0000
     27 H27          0.7102   6.3563   0.5385 H              1 <1>                0.0000
     28 H28         -1.8951   2.6719   0.2108 H              1 <1>                0.0000
     29 H29         -0.9163   2.3836  -1.2466 H              1 <1>                0.0000
     30 H30         -1.4650   0.3472   0.9594 H              1 <1>                0.0000
     31 H31         -2.2323   0.3709  -0.6471 H              1 <1>                0.0000
     32 H32         -0.0032   0.1129  -1.7107 H              1 <1>                0.0000
     33 H33          0.9748  -0.0941   1.1730 H              1 <1>                0.0000
     34 H34          1.9628  -0.3796  -0.2791 H              1 <1>                0.0000
     35 H35          1.5638   1.9503  -1.0181 H              1 <1>                0.0000
     36 H36          3.4581   1.3535   0.5464 H              1 <1>                0.0000
     37 H37          2.2851   0.7292   2.5345 H              1 <1>                0.0000
     38 H38          3.2389   2.1792   2.9064 H              1 <1>                0.0000
     39 H39         -0.8439   2.5789   2.4691 H              1 <1>                0.0000
     40 H40         -0.1056   0.9889   2.1358 H              1 <1>                0.0000
     41 H41         -0.0752  -2.1054   0.1876 H              1 <1>                0.0000
     42 H42         -0.3464  -3.9055   0.4310 H              1 <1>                0.0000
     43 H43         -0.7983  -6.3178   0.5846 H              1 <1>                0.0000
     44 H44         -2.0860  -7.4482  -1.1806 H              1 <1>                0.0000
     45 H45         -2.4940  -3.7567  -3.2781 H              1 <1>                0.0000
@<TRIPOS>BOND
    1    1    2 2     
    2    1   26 1     
    3    1   27 1     
    4    2   15 1     
    5    2    3 1     
    6    3    4 1     
    7    3    5 1     
    8    5   10 1     
    9    5   14 1     
   10    5    6 1     
   11    6    7 1     
   12    6   28 1     
   13    6   29 1     
   14    7    8 1     
   15    7   30 1     
   16    7   31 1     
   17    8    9 1     
   18    8   16 1     
   19    8   32 1     
   20    9   10 1     
   21    9   33 1     
   22    9   34 1     
   23   10   11 1     
   24   10   35 1     
   25   11   12 1     
   26   11   15 1     
   27   11   36 1     
   28   12   13 1     
   29   12   37 1     
   30   12   38 1     
   31   13   14 1     
   32   14   39 1     
   33   14   40 1     
   34   16   17 am    
   35   16   41 1     
   36   17   18 2     
   37   17   19 1     
   38   19   25 ar    
   39   19   20 ar    
   40   20   21 ar    
   41   20   42 1     
   42   21   22 ar    
   43   21   43 1     
   44   22   23 ar    
   45   22   44 1     
   46   23   24 1     
   47   23   25 ar    
   48   25   45 1     
@<TRIPOS>SUBSTRUCTURE
      1 ****           1
@<TRIPOS>SET
DONOR_HYDROGENS      STATIC     ATOMS    <user>   **** ""
4 26 27 4 41
ATOM$RED        STATIC     ATOMS    COLORGROUP SYSTEM
4 26 27 4 41
