#       Name:                4SP
#       Creating user name   gbret
#       Creation time:       Fri Sep  9 00:32:36 2016


#       File generated by GOLD software.
#

@<TRIPOS>MOLECULE
4SP
    50    53     1
SMALL
NO_CHARGES


@<TRIPOS>ATOM
      1 N1          -1.6817   2.1485   5.6745 N.pl3          1 <1>                0.0000
      2 S2          -0.8506   0.8460   5.0786 S.o2           1 <1>                0.0000
      3 O3           0.4112   1.3379   4.6484 O.2            1 <1>                0.0000
      4 O4          -0.9940  -0.1939   6.0363 O.2            1 <1>                0.0000
      5 C5          -1.6951   0.3073   3.6290 C.ar           1 <1>                0.0000
      6 C6          -2.7035  -0.6339   3.7277 C.ar           1 <1>                0.0000
      7 C7          -3.3674  -1.0583   2.5935 C.ar           1 <1>                0.0000
      8 C8          -3.0216  -0.5384   1.3527 C.ar           1 <1>                0.0000
      9 N9          -3.6920  -0.9654   0.2027 N.pl3          1 <1>                0.0000
     10 C10         -3.0116  -1.0599  -1.0015 C.ar           1 <1>                0.0000
     11 N11         -1.7005  -0.8526  -1.0150 N.ar           1 <1>                0.0000
     12 C12         -1.0049  -0.9320  -2.1413 C.ar           1 <1>                0.0000
     13 O13          0.3329  -0.7191  -2.1443 O.3            1 <1>                0.0000
     14 C14          0.9434  -0.4098  -0.8898 C.3            1 <1>                0.0000
     15 C15          2.4462  -0.2042  -1.0909 C.3            1 <1>                0.0000
     16 C16          2.6794   1.0269  -1.9690 C.3            1 <1>                0.0000
     17 C17          4.1821   1.2325  -2.1701 C.3            1 <1>                0.0000
     18 C18          4.8547   1.4402  -0.8116 C.3            1 <1>                0.0000
     19 C19          4.6215   0.2092   0.0665 C.3            1 <1>                0.0000
     20 C20          3.1188   0.0035   0.2675 C.3            1 <1>                0.0000
     21 C21         -1.6838  -1.2416  -3.3302 C.ar           1 <1>                0.0000
     22 N22         -1.3121  -1.4007  -4.6245 N.2            1 <1>                0.0000
     23 C23         -2.3576  -1.6890  -5.3430 C.2            1 <1>                0.0000
     24 N24         -3.4686  -1.7332  -4.5526 N.pl3          1 <1>                0.0000
     25 H25         -4.3732  -1.9270  -4.8443 H              1 <1>                0.0000
     26 C26         -3.0719  -1.4532  -3.2694 C.ar           1 <1>                0.0000
     27 N27         -3.6902  -1.3588  -2.0971 N.ar           1 <1>                0.0000
     28 C28         -2.0086   0.4072   1.2572 C.ar           1 <1>                0.0000
     29 C29         -1.3520   0.8309   2.3959 C.ar           1 <1>                0.0000
     30 H30         -1.2400   3.0079   5.7600 H              1 <1>                0.0000
     31 H31         -2.6114   2.0530   5.9344 H              1 <1>                0.0000
     32 H32         -2.9718  -1.0377   4.6927 H              1 <1>                0.0000
     33 H33         -4.1543  -1.7939   2.6712 H              1 <1>                0.0000
     34 H34         -4.6332  -1.1957   0.2473 H              1 <1>                0.0000
     35 H35          0.5027   0.5017  -0.4862 H              1 <1>                0.0000
     36 H36          0.7792  -1.2320  -0.1933 H              1 <1>                0.0000
     37 H37          2.8714  -1.0826  -1.5763 H              1 <1>                0.0000
     38 H38          2.2002   0.8789  -2.9368 H              1 <1>                0.0000
     39 H39          2.2542   1.9053  -1.4836 H              1 <1>                0.0000
     40 H40          4.6073   0.3541  -2.6555 H              1 <1>                0.0000
     41 H41          4.3483   2.1095  -2.7957 H              1 <1>                0.0000
     42 H42          5.9253   1.5868  -0.9549 H              1 <1>                0.0000
     43 H43          4.4295   2.3187  -0.3262 H              1 <1>                0.0000
     44 H44          5.0467  -0.6692  -0.4190 H              1 <1>                0.0000
     45 H45          5.1007   0.3572   1.0342 H              1 <1>                0.0000
     46 H46          2.6936   0.8820   0.7530 H              1 <1>                0.0000
     47 H47          2.9526  -0.8735   0.8931 H              1 <1>                0.0000
     48 H48         -2.3474  -1.8669  -6.4082 H              1 <1>                0.0000
     49 H49         -1.7371   0.8132   0.2939 H              1 <1>                0.0000
     50 H50         -0.5645   1.5663   2.3224 H              1 <1>                0.0000
@<TRIPOS>BOND
    1    1    2 1     
    2    1   30 1     
    3    1   31 1     
    4    2    3 2     
    5    2    4 2     
    6    2    5 1     
    7    5   29 ar    
    8    5    6 ar    
    9    6    7 ar    
   10    6   32 1     
   11    7    8 ar    
   12    7   33 1     
   13    8    9 1     
   14    8   28 ar    
   15    9   10 1     
   16    9   34 1     
   17   10   27 ar    
   18   10   11 ar    
   19   11   12 ar    
   20   12   13 1     
   21   12   21 ar    
   22   13   14 1     
   23   14   15 1     
   24   14   35 1     
   25   14   36 1     
   26   15   20 1     
   27   15   16 1     
   28   15   37 1     
   29   16   17 1     
   30   16   38 1     
   31   16   39 1     
   32   17   18 1     
   33   17   40 1     
   34   17   41 1     
   35   18   19 1     
   36   18   42 1     
   37   18   43 1     
   38   19   20 1     
   39   19   44 1     
   40   19   45 1     
   41   20   46 1     
   42   20   47 1     
   43   21   26 ar    
   44   21   22 1     
   45   22   23 2     
   46   23   24 1     
   47   23   48 1     
   48   24   25 1     
   49   24   26 1     
   50   26   27 ar    
   51   28   29 ar    
   52   28   49 1     
   53   29   50 1     
@<TRIPOS>SUBSTRUCTURE
      1 ****           1
@<TRIPOS>SET
DONOR_HYDROGENS      STATIC     ATOMS    <user>   **** ""
4 30 31 34 25
ATOM$RED        STATIC     ATOMS    COLORGROUP SYSTEM
4 30 31 34 25
