#       Name:                4U3
#       Creating user name   gbret
#       Creation time:       Fri Sep  9 00:36:04 2016


#       File generated by GOLD software.
#

@<TRIPOS>MOLECULE
4U3
    32    33     1
SMALL
NO_CHARGES


@<TRIPOS>ATOM
      1 N1           1.0239   5.3411   0.5449 N.pl3          1 <1>                0.0000
      2 C2           1.0426   3.9653   0.5373 C.2            1 <1>                0.0000
      3 N3          -0.0948   3.2828   0.5390 N.2            1 <1>                0.0000
      4 C4          -0.0892   1.9510   0.5318 C.2            1 <1>                0.0000
      5 O5          -1.1489   1.3467   0.5336 O.2            1 <1>                0.0000
      6 N6           1.0660   1.2610   0.5222 N.am           1 <1>                0.0000
      7 C7           2.2608   1.9180   0.5205 C.2            1 <1>                0.0000
      8 C8           2.2715   3.2726   0.5219 C.2            1 <1>                0.0000
      9 Cl9          3.7739   4.1424   0.5192 Cl             1 <1>                0.0000
     10 C10          1.0398  -0.2038   0.5139 C.3            1 <1>                0.0000
     11 C11          0.3531  -0.7366   1.7909 C.3            1 <1>                0.0000
     12 C12         -0.4402  -1.9699   1.3040 C.3            1 <1>                0.0000
     13 O13         -1.8394  -1.7858   1.5283 O.3            1 <1>                0.0000
     14 C14         -0.1388  -2.0363  -0.2097 C.3            1 <1>                0.0000
     15 C15         -1.3824  -2.4825  -0.9812 C.3            1 <1>                0.0000
     16 O16         -1.0520  -2.6498  -2.3614 O.3            1 <1>                0.0000
     17 P17         -2.1237  -3.1142  -3.4695 P.3            1 <1>                0.0000
     18 O18         -3.2295  -2.0146  -3.6198 O.co2          1 <1>                0.0000
     19 O19         -1.3993  -3.3176  -4.8437 O.co2          1 <1>                0.0000
     20 O20         -2.7853  -4.4625  -3.0233 O.co2          1 <1>                0.0000
     21 O21          0.2211  -0.6859  -0.5739 O.3            1 <1>                0.0000
     22 H22          1.8573   5.8375   0.5397 H              1 <1>                0.0000
     23 H23          0.1774   5.8146   0.5515 H              1 <1>                0.0000
     24 H24          3.1882   1.3646   0.5135 H              1 <1>                0.0000
     25 H25          2.0518  -0.6002   0.4317 H              1 <1>                0.0000
     26 H26          1.0976  -1.0293   2.5312 H              1 <1>                0.0000
     27 H27         -0.3221   0.0135   2.2028 H              1 <1>                0.0000
     28 H28         -0.0894  -2.8719   1.8053 H              1 <1>                0.0000
     29 H29         -2.0776  -1.6775   2.4593 H              1 <1>                0.0000
     30 H30          0.6907  -2.7168  -0.4019 H              1 <1>                0.0000
     31 H31         -1.7411  -3.4288  -0.5763 H              1 <1>                0.0000
     32 H32         -2.1615  -1.7267  -0.8831 H              1 <1>                0.0000
@<TRIPOS>BOND
    1    1    2 1     
    2    1   22 1     
    3    1   23 1     
    4    2    8 1     
    5    2    3 2     
    6    3    4 1     
    7    4    5 2     
    8    4    6 am    
    9    6    7 1     
   10    6   10 1     
   11    7    8 2     
   12    7   24 1     
   13    8    9 1     
   14   10   21 1     
   15   10   11 1     
   16   10   25 1     
   17   11   12 1     
   18   11   26 1     
   19   11   27 1     
   20   12   13 1     
   21   12   14 1     
   22   12   28 1     
   23   13   29 1     
   24   14   15 1     
   25   14   21 1     
   26   14   30 1     
   27   15   16 1     
   28   15   31 1     
   29   15   32 1     
   30   16   17 1     
   31   17   18 ar    
   32   17   19 ar    
   33   17   20 ar    
@<TRIPOS>SUBSTRUCTURE
      1 ****           1
@<TRIPOS>SET
DONOR_HYDROGENS      STATIC     ATOMS    <user>   **** ""
3 22 23 29
ATOM$RED        STATIC     ATOMS    COLORGROUP SYSTEM
3 22 23 29
