#       Name:                4UG
#       Creating user name   gbret
#       Creation time:       Fri Sep  9 00:36:50 2016


#       File generated by GOLD software.
#

@<TRIPOS>MOLECULE
4UG
    29    29     1
SMALL
NO_CHARGES


@<TRIPOS>ATOM
      1 N1           0.1777   1.9541   1.5895 N.3            1 <1>                0.0000
      2 C2           0.1811   0.4961   1.7691 C.3            1 <1>                0.0000
      3 C3           0.8009  -0.1680   0.5380 C.3            1 <1>                0.0000
      4 C4          -0.0660   0.1222  -0.6888 C.3            1 <1>                0.0000
      5 C5           0.6566  -0.3624  -1.9482 C.3            1 <1>                0.0000
      6 C6          -0.3304  -0.3174  -3.1209 C.3            1 <1>                0.0000
      7 C7          -1.4155  -1.3695  -2.8883 C.3            1 <1>                0.0000
      8 N8          -1.9800  -1.2332  -1.5515 N.am           1 <1>                0.0000
      9 C9          -1.3817  -0.5884  -0.5493 C.2            1 <1>                0.0000
     10 O10         -1.9291  -0.5754   0.5329 O.2            1 <1>                0.0000
     11 C11          1.0014   0.1370   3.0097 C.3            1 <1>                0.0000
     12 O12          2.3432   0.5996   2.8438 O.3            1 <1>                0.0000
     13 C13          0.4050   0.7759   4.1942 C.1            1 <1>                0.0000
     14 N14         -0.0552   1.2690   5.1082 N.1            1 <1>                0.0000
     15 H15          1.1158   2.3059   1.4700 H              1 <1>                0.0000
     16 H16         -0.4103   2.2216   0.8144 H              1 <1>                0.0000
     17 H17         -0.8424   0.1432   1.8957 H              1 <1>                0.0000
     18 H18          1.8031   0.2291   0.3768 H              1 <1>                0.0000
     19 H19          0.8579  -1.2450   0.6961 H              1 <1>                0.0000
     20 H20         -0.2404   1.1956  -0.7633 H              1 <1>                0.0000
     21 H21          1.5054   0.2886  -2.1577 H              1 <1>                0.0000
     22 H22          1.0051  -1.3846  -1.8009 H              1 <1>                0.0000
     23 H23         -0.7858   0.6713  -3.1778 H              1 <1>                0.0000
     24 H24          0.1960  -0.5342  -4.0504 H              1 <1>                0.0000
     25 H25         -2.2058  -1.2415  -3.6280 H              1 <1>                0.0000
     26 H26         -0.9823  -2.3638  -2.9968 H              1 <1>                0.0000
     27 H27         -2.8454  -1.6366  -1.3802 H              1 <1>                0.0000
     28 H28          1.0039  -0.9449   3.1430 H              1 <1>                0.0000
     29 H29          2.4171   1.5557   2.7198 H              1 <1>                0.0000
@<TRIPOS>BOND
    1    1    2 1     
    2    1   15 1     
    3    1   16 1     
    4    2    3 1     
    5    2   11 1     
    6    2   17 1     
    7    3    4 1     
    8    3   18 1     
    9    3   19 1     
   10    4    9 1     
   11    4    5 1     
   12    4   20 1     
   13    5    6 1     
   14    5   21 1     
   15    5   22 1     
   16    6    7 1     
   17    6   23 1     
   18    6   24 1     
   19    7    8 1     
   20    7   25 1     
   21    7   26 1     
   22    8    9 am    
   23    8   27 1     
   24    9   10 2     
   25   11   12 1     
   26   11   13 1     
   27   11   28 1     
   28   12   29 1     
   29   13   14 3     
@<TRIPOS>SUBSTRUCTURE
      1 ****           1
@<TRIPOS>SET
DONOR_HYDROGENS      STATIC     ATOMS    <user>   **** ""
4 15 16 27 29
ATOM$RED        STATIC     ATOMS    COLORGROUP SYSTEM
4 15 16 27 29
