#       Name:                4UY
#       Creating user name   gbret
#       Creation time:       Fri Sep  9 00:38:00 2016


#       File generated by GOLD software.
#

@<TRIPOS>MOLECULE
4UY
    83    86     1
SMALL
NO_CHARGES


@<TRIPOS>ATOM
      1 C1          -2.1060   2.4776  -3.7821 C.3            1 <1>                0.0000
      2 N2          -2.0023   1.0152  -3.8748 N.4            1 <1>                0.0000
      3 H3          -1.3962   0.6740  -3.1439 H              1 <1>                0.0000
      4 H4          -2.9186   0.6058  -3.7704 H              1 <1>                0.0000
      5 C5          -1.4519   0.6488  -5.1725 C.3            1 <1>                0.0000
      6 C6           0.0190   1.0590  -5.3352 C.3            1 <1>                0.0000
      7 O7           0.4023   0.2851  -6.4870 O.3            1 <1>                0.0000
      8 C8          -0.1666  -1.0185  -6.3398 C.3            1 <1>                0.0000
      9 O9           0.7422  -1.8242  -5.5727 O.3            1 <1>                0.0000
     10 C10         -0.0982  -2.7229  -4.8204 C.3            1 <1>                0.0000
     11 C11         -1.0714  -1.6821  -4.2095 C.3            1 <1>                0.0000
     12 O12         -0.3643  -0.9493  -3.1811 O.3            1 <1>                0.0000
     13 C13         -0.4411  -1.4298  -1.9257 C.2            1 <1>                0.0000
     14 O14         -1.0834  -2.4360  -1.6985 O.2            1 <1>                0.0000
     15 N15          0.1944  -0.7948  -0.9211 N.am           1 <1>                0.0000
     16 C16          0.1108  -1.3176   0.4449 C.3            1 <1>                0.0000
     17 C17          1.1795  -2.3941   0.6453 C.3            1 <1>                0.0000
     18 C18          0.8828  -3.5693  -0.2502 C.ar           1 <1>                0.0000
     19 C19          0.0816  -4.5999   0.2045 C.ar           1 <1>                0.0000
     20 C20         -0.1905  -5.6779  -0.6169 C.ar           1 <1>                0.0000
     21 C21          0.3383  -5.7250  -1.8933 C.ar           1 <1>                0.0000
     22 C22          1.1387  -4.6940  -2.3483 C.ar           1 <1>                0.0000
     23 C23          1.4073  -3.6140  -1.5284 C.ar           1 <1>                0.0000
     24 C24          0.3401  -0.1796   1.4415 C.3            1 <1>                0.0000
     25 O25          1.6339   0.3879   1.2270 O.3            1 <1>                0.0000
     26 C26         -0.7286   0.8969   1.2411 C.3            1 <1>                0.0000
     27 N27         -0.5090   1.9866   2.1953 N.pl3          1 <1>                0.0000
     28 C28          0.4358   3.0599   1.8768 C.3            1 <1>                0.0000
     29 C29         -0.2796   4.1470   1.0722 C.3            1 <1>                0.0000
     30 C30          0.6672   5.3297   0.8586 C.3            1 <1>                0.0000
     31 C31         -0.7035   3.5814  -0.2847 C.3            1 <1>                0.0000
     32 S32         -1.3288   2.0050   3.6341 S.o2           1 <1>                0.0000
     33 O33         -1.3557   3.3594   4.0632 O.2            1 <1>                0.0000
     34 O34         -2.5026   1.2288   3.4370 O.2            1 <1>                0.0000
     35 C35         -0.3453   1.1312   4.8061 C.ar           1 <1>                0.0000
     36 C36         -0.5058  -0.2334   4.9609 C.ar           1 <1>                0.0000
     37 C37          0.2640  -0.9208   5.8791 C.ar           1 <1>                0.0000
     38 C38          1.1992  -0.2410   6.6459 C.ar           1 <1>                0.0000
     39 O39          1.9581  -0.9150   7.5495 O.3            1 <1>                0.0000
     40 C40          2.9006  -0.1505   8.3040 C.3            1 <1>                0.0000
     41 C41          1.3587   1.1281   6.4883 C.ar           1 <1>                0.0000
     42 C42          0.5897   1.8102   5.5653 C.ar           1 <1>                0.0000
     43 C43         -1.4046  -0.8470  -5.4414 C.3            1 <1>                0.0000
     44 H44         -1.1162   2.9199  -3.8950 H              1 <1>                0.0000
     45 H45         -2.7609   2.8462  -4.5717 H              1 <1>                0.0000
     46 H46         -2.5180   2.7518  -2.8109 H              1 <1>                0.0000
     47 H47         -2.0415   1.1424  -5.9658 H              1 <1>                0.0000
     48 H48          0.1022   2.1252  -5.5412 H              1 <1>                0.0000
     49 H49          0.6059   0.7815  -4.4646 H              1 <1>                0.0000
     50 H50         -0.4166  -1.4816  -7.3063 H              1 <1>                0.0000
     51 H51         -0.6305  -3.4064  -5.4690 H              1 <1>                0.0000
     52 H52          0.4580  -3.2266  -4.0399 H              1 <1>                0.0000
     53 H53         -1.9486  -2.1823  -3.8134 H              1 <1>                0.0000
     54 H54          0.7072   0.0084  -1.1024 H              1 <1>                0.0000
     55 H55         -0.8761  -1.7505   0.6085 H              1 <1>                0.0000
     56 H56          2.1585  -1.9850   0.3956 H              1 <1>                0.0000
     57 H57          1.1764  -2.7200   1.6854 H              1 <1>                0.0000
     58 H58         -0.3315  -4.5630   1.2017 H              1 <1>                0.0000
     59 H59         -0.8159  -6.4834  -0.2614 H              1 <1>                0.0000
     60 H60          0.1263  -6.5676  -2.5348 H              1 <1>                0.0000
     61 H61          1.5521  -4.7310  -3.3454 H              1 <1>                0.0000
     62 H62          2.0327  -2.8084  -1.8840 H              1 <1>                0.0000
     63 H63          0.2779  -0.5686   2.4578 H              1 <1>                0.0000
     64 H64          1.7607   0.7545   0.3412 H              1 <1>                0.0000
     65 H65         -0.6664   1.2858   0.2248 H              1 <1>                0.0000
     66 H66         -1.7154   0.4640   1.4047 H              1 <1>                0.0000
     67 H67          0.8243   3.4881   2.8009 H              1 <1>                0.0000
     68 H68          1.2600   2.6559   1.2890 H              1 <1>                0.0000
     69 H69         -1.1618   4.4817   1.6180 H              1 <1>                0.0000
     70 H70          1.5493   4.9950   0.3128 H              1 <1>                0.0000
     71 H71          0.1575   6.1042   0.2854 H              1 <1>                0.0000
     72 H72          0.9692   5.7326   1.8253 H              1 <1>                0.0000
     73 H73          0.1608   3.1388  -0.7799 H              1 <1>                0.0000
     74 H74         -1.4681   2.8186  -0.1376 H              1 <1>                0.0000
     75 H75         -1.1052   4.3840  -0.9034 H              1 <1>                0.0000
     76 H76         -1.2340  -0.7622   4.3638 H              1 <1>                0.0000
     77 H77          0.1378  -1.9866   6.0002 H              1 <1>                0.0000
     78 H78          3.6078   0.3265   7.6255 H              1 <1>                0.0000
     79 H79          2.3739   0.6135   8.8758 H              1 <1>                0.0000
     80 H80          3.4389  -0.8084   8.9863 H              1 <1>                0.0000
     81 H81          2.0858   1.6597   7.0842 H              1 <1>                0.0000
     82 H82          0.7137   2.8759   5.4420 H              1 <1>                0.0000
     83 H83         -2.3184  -1.2056  -5.9419 H              1 <1>                0.0000
@<TRIPOS>BOND
    1    1    2 1     
    2    1   44 1     
    3    1   45 1     
    4    1   46 1     
    5    2    3 1     
    6    2    4 1     
    7    2    5 1     
    8    5   43 1     
    9    5    6 1     
   10    5   47 1     
   11    6    7 1     
   12    6   48 1     
   13    6   49 1     
   14    7    8 1     
   15    8   43 1     
   16    8    9 1     
   17    8   50 1     
   18    9   10 1     
   19   10   11 1     
   20   10   51 1     
   21   10   52 1     
   22   11   12 1     
   23   11   43 1     
   24   11   53 1     
   25   12   13 1     
   26   13   14 2     
   27   13   15 am    
   28   15   16 1     
   29   15   54 1     
   30   16   17 1     
   31   16   24 1     
   32   16   55 1     
   33   17   18 1     
   34   17   56 1     
   35   17   57 1     
   36   18   23 ar    
   37   18   19 ar    
   38   19   20 ar    
   39   19   58 1     
   40   20   21 ar    
   41   20   59 1     
   42   21   22 ar    
   43   21   60 1     
   44   22   23 ar    
   45   22   61 1     
   46   23   62 1     
   47   24   25 1     
   48   24   26 1     
   49   24   63 1     
   50   25   64 1     
   51   26   27 1     
   52   26   65 1     
   53   26   66 1     
   54   27   28 1     
   55   27   32 1     
   56   28   29 1     
   57   28   67 1     
   58   28   68 1     
   59   29   30 1     
   60   29   31 1     
   61   29   69 1     
   62   30   70 1     
   63   30   71 1     
   64   30   72 1     
   65   31   73 1     
   66   31   74 1     
   67   31   75 1     
   68   32   33 2     
   69   32   34 2     
   70   32   35 1     
   71   35   42 ar    
   72   35   36 ar    
   73   36   37 ar    
   74   36   76 1     
   75   37   38 ar    
   76   37   77 1     
   77   38   39 1     
   78   38   41 ar    
   79   39   40 1     
   80   40   78 1     
   81   40   79 1     
   82   40   80 1     
   83   41   42 ar    
   84   41   81 1     
   85   42   82 1     
   86   43   83 1     
@<TRIPOS>SUBSTRUCTURE
      1 ****           1
@<TRIPOS>SET
DONOR_HYDROGENS      STATIC     ATOMS    <user>   **** ""
4 3 4 54 64
ATOM$RED        STATIC     ATOMS    COLORGROUP SYSTEM
4 3 4 54 64
