#       Name:                4VF
#       Creating user name   gbret
#       Creation time:       Fri Sep  9 00:39:10 2016


#       File generated by GOLD software.
#

@<TRIPOS>MOLECULE
4VF
    59    63     1
SMALL
NO_CHARGES


@<TRIPOS>ATOM
      1 O1           2.5057  -4.1788  -4.3084 O.3            1 <1>                0.0000
      2 C2           1.6438  -3.5744  -5.2748 C.3            1 <1>                0.0000
      3 C3           1.5903  -2.0640  -5.0366 C.3            1 <1>                0.0000
      4 N4           0.9142  -1.7938  -3.7654 N.am           1 <1>                0.0000
      5 C5           0.4771  -2.9157  -2.9420 C.3            1 <1>                0.0000
      6 C6           0.7273  -2.6810  -1.4526 C.3            1 <1>                0.0000
      7 N7           0.2505  -1.3420  -1.0897 N.pl3          1 <1>                0.0000
      8 C8          -0.2201  -0.8913   0.0771 C.2            1 <1>                0.0000
      9 C9          -0.5237   0.4488  -0.0635 C.2            1 <1>                0.0000
     10 C10         -0.2199   0.8107  -1.3959 C.2            1 <1>                0.0000
     11 C11          0.2449  -0.2994  -2.0082 C.2            1 <1>                0.0000
     12 C12          0.7171  -0.5097  -3.3844 C.2            1 <1>                0.0000
     13 O13          0.9172   0.4208  -4.1426 O.2            1 <1>                0.0000
     14 C14         -1.0670   1.3413   0.9871 C.ar           1 <1>                0.0000
     15 C15         -1.3365   2.6850   0.7078 C.ar           1 <1>                0.0000
     16 C16         -1.8430   3.4791   1.7193 C.ar           1 <1>                0.0000
     17 N17         -2.0567   2.9490   2.9141 N.ar           1 <1>                0.0000
     18 C18         -1.7924   1.6725   3.1513 C.ar           1 <1>                0.0000
     19 N19         -2.0303   1.1580   4.4140 N.pl3          1 <1>                0.0000
     20 C20         -2.5677   2.0223   5.4678 C.3            1 <1>                0.0000
     21 C21         -4.0957   2.0622   5.3682 C.3            1 <1>                0.0000
     22 C22         -4.6526   2.9033   6.5199 C.3            1 <1>                0.0000
     23 O23         -4.2208   2.3495   7.7645 O.3            1 <1>                0.0000
     24 C24         -2.8020   2.3301   7.9336 C.3            1 <1>                0.0000
     25 C25         -2.1708   1.4660   6.8388 C.3            1 <1>                0.0000
     26 N26         -1.3114   0.8753   2.2101 N.ar           1 <1>                0.0000
     27 C27          2.9922  -1.5133  -4.9869 C.ar           1 <1>                0.0000
     28 C28          3.7355  -1.6188  -3.8259 C.ar           1 <1>                0.0000
     29 C29          5.0215  -1.1144  -3.7797 C.ar           1 <1>                0.0000
     30 C30          5.5651  -0.5036  -4.8943 C.ar           1 <1>                0.0000
     31 C31          4.8219  -0.3978  -6.0562 C.ar           1 <1>                0.0000
     32 Cl32         5.5042   0.3685  -7.4566 Cl             1 <1>                0.0000
     33 C33          3.5366  -0.9081  -6.1036 C.ar           1 <1>                0.0000
     34 H34          2.5873  -5.1381  -4.3995 H              1 <1>                0.0000
     35 H35          2.0266  -3.7710  -6.2763 H              1 <1>                0.0000
     36 H36          0.6418  -3.9929  -5.1802 H              1 <1>                0.0000
     37 H37          1.0412  -1.5874  -5.8487 H              1 <1>                0.0000
     38 H38         -0.5898  -3.0741  -3.0996 H              1 <1>                0.0000
     39 H39          1.0144  -3.8116  -3.2529 H              1 <1>                0.0000
     40 H40          0.1895  -3.4294  -0.8705 H              1 <1>                0.0000
     41 H41          1.7950  -2.7558  -1.2464 H              1 <1>                0.0000
     42 H42         -0.3426  -1.4757   0.9770 H              1 <1>                0.0000
     43 H43         -0.3377   1.7883  -1.8395 H              1 <1>                0.0000
     44 H44         -1.1527   3.0926  -0.2753 H              1 <1>                0.0000
     45 H45         -2.0618   4.5209   1.5374 H              1 <1>                0.0000
     46 H46         -1.8413   0.2252   4.6012 H              1 <1>                0.0000
     47 H47         -2.1670   3.0294   5.3530 H              1 <1>                0.0000
     48 H48         -4.3872   2.5083   4.4173 H              1 <1>                0.0000
     49 H49         -4.4916   1.0487   5.4328 H              1 <1>                0.0000
     50 H50         -4.2884   3.9269   6.4316 H              1 <1>                0.0000
     51 H51         -5.7418   2.9000   6.4789 H              1 <1>                0.0000
     52 H52         -2.4136   3.3462   7.8638 H              1 <1>                0.0000
     53 H53         -2.5580   1.9139   8.9110 H              1 <1>                0.0000
     54 H54         -2.5278   0.4405   6.9330 H              1 <1>                0.0000
     55 H55         -1.0856   1.4857   6.9395 H              1 <1>                0.0000
     56 H56          3.3109  -2.0953  -2.9546 H              1 <1>                0.0000
     57 H57          5.6016  -1.1971  -2.8725 H              1 <1>                0.0000
     58 H58          6.5697  -0.1089  -4.8579 H              1 <1>                0.0000
     59 H59          2.9559  -0.8257  -7.0105 H              1 <1>                0.0000
@<TRIPOS>BOND
    1    1    2 1     
    2    1   34 1     
    3    2    3 1     
    4    2   35 1     
    5    2   36 1     
    6    3    4 1     
    7    3   27 1     
    8    3   37 1     
    9    4   12 am    
   10    4    5 1     
   11    5    6 1     
   12    5   38 1     
   13    5   39 1     
   14    6    7 1     
   15    6   40 1     
   16    6   41 1     
   17    7   11 1     
   18    7    8 1     
   19    8    9 2     
   20    8   42 1     
   21    9   10 1     
   22    9   14 1     
   23   10   11 2     
   24   10   43 1     
   25   11   12 1     
   26   12   13 2     
   27   14   26 ar    
   28   14   15 ar    
   29   15   16 ar    
   30   15   44 1     
   31   16   17 ar    
   32   16   45 1     
   33   17   18 ar    
   34   18   19 1     
   35   18   26 ar    
   36   19   20 1     
   37   19   46 1     
   38   20   25 1     
   39   20   21 1     
   40   20   47 1     
   41   21   22 1     
   42   21   48 1     
   43   21   49 1     
   44   22   23 1     
   45   22   50 1     
   46   22   51 1     
   47   23   24 1     
   48   24   25 1     
   49   24   52 1     
   50   24   53 1     
   51   25   54 1     
   52   25   55 1     
   53   27   33 ar    
   54   27   28 ar    
   55   28   29 ar    
   56   28   56 1     
   57   29   30 ar    
   58   29   57 1     
   59   30   31 ar    
   60   30   58 1     
   61   31   32 1     
   62   31   33 ar    
   63   33   59 1     
@<TRIPOS>SUBSTRUCTURE
      1 ****           1
@<TRIPOS>SET
DONOR_HYDROGENS      STATIC     ATOMS    <user>   **** ""
2 34 46
ATOM$RED        STATIC     ATOMS    COLORGROUP SYSTEM
2 34 46
