#       Name:                4VG
#       Creating user name   gbret
#       Creation time:       Fri Sep  9 00:39:14 2016


#       File generated by GOLD software.
#

@<TRIPOS>MOLECULE
4VG
    62    66     1
SMALL
NO_CHARGES


@<TRIPOS>ATOM
      1 O1           2.0915  -4.2837  -3.9507 O.3            1 <1>                0.0000
      2 C2           1.4764  -3.5701  -5.0251 C.3            1 <1>                0.0000
      3 C3           1.6719  -2.0669  -4.8169 C.3            1 <1>                0.0000
      4 N4           0.9562  -1.6439  -3.6107 N.am           1 <1>                0.0000
      5 C5           0.3232  -2.6291  -2.7479 C.3            1 <1>                0.0000
      6 C6           1.2044  -3.0708  -1.5806 C.3            1 <1>                0.0000
      7 C7           1.8694  -1.8456  -0.9406 C.3            1 <1>                0.0000
      8 N8           0.8998  -0.7546  -0.8275 N.pl3          1 <1>                0.0000
      9 C9           0.3246  -0.2733   0.2865 C.2            1 <1>                0.0000
     10 C10         -0.5295   0.7504  -0.0699 C.2            1 <1>                0.0000
     11 C11         -0.4571   0.8872  -1.4747 C.2            1 <1>                0.0000
     12 C12          0.4239  -0.0419  -1.9108 C.2            1 <1>                0.0000
     13 C13          0.8817  -0.3307  -3.2836 C.2            1 <1>                0.0000
     14 O14          1.1690   0.5509  -4.0716 O.2            1 <1>                0.0000
     15 C15         -1.3673   1.5560   0.8492 C.ar           1 <1>                0.0000
     16 C16         -2.1975   2.5658   0.3523 C.ar           1 <1>                0.0000
     17 C17         -2.9612   3.2906   1.2477 C.ar           1 <1>                0.0000
     18 N18         -2.8852   3.0102   2.5399 N.ar           1 <1>                0.0000
     19 C19         -2.0900   2.0478   2.9836 C.ar           1 <1>                0.0000
     20 N20         -2.0402   1.7868   4.3420 N.pl3          1 <1>                0.0000
     21 C21         -2.8603   2.5706   5.2690 C.3            1 <1>                0.0000
     22 C22         -4.2596   1.9543   5.3618 C.3            1 <1>                0.0000
     23 C23         -5.0840   2.7321   6.3909 C.3            1 <1>                0.0000
     24 O24         -4.4138   2.7078   7.6528 O.3            1 <1>                0.0000
     25 C25         -3.1195   3.3133   7.6377 C.3            1 <1>                0.0000
     26 C26         -2.2161   2.5589   6.6586 C.3            1 <1>                0.0000
     27 N27         -1.3455   1.3259   2.1605 N.ar           1 <1>                0.0000
     28 C28          3.1407  -1.7684  -4.6603 C.ar           1 <1>                0.0000
     29 C29          3.8102  -2.1717  -3.5198 C.ar           1 <1>                0.0000
     30 C30          5.1575  -1.8986  -3.3757 C.ar           1 <1>                0.0000
     31 C31          5.8362  -1.2216  -4.3716 C.ar           1 <1>                0.0000
     32 C32          5.1669  -0.8178  -5.5129 C.ar           1 <1>                0.0000
     33 Cl33         6.0187   0.0320  -6.7643 Cl             1 <1>                0.0000
     34 C34          3.8194  -1.0965  -5.6591 C.ar           1 <1>                0.0000
     35 H35          2.0067  -5.2447  -4.0173 H              1 <1>                0.0000
     36 H36          1.9335  -3.8687  -5.9685 H              1 <1>                0.0000
     37 H37          0.4107  -3.7979  -5.0496 H              1 <1>                0.0000
     38 H38          1.2813  -1.5269  -5.6794 H              1 <1>                0.0000
     39 H39         -0.5976  -2.2037  -2.3489 H              1 <1>                0.0000
     40 H40          0.0700  -3.5050  -3.3452 H              1 <1>                0.0000
     41 H41          0.5920  -3.5808  -0.8368 H              1 <1>                0.0000
     42 H42          1.9735  -3.7521  -1.9444 H              1 <1>                0.0000
     43 H43          2.2352  -2.1092   0.0518 H              1 <1>                0.0000
     44 H44          2.7066  -1.5233  -1.5597 H              1 <1>                0.0000
     45 H45          0.5003  -0.6277   1.2914 H              1 <1>                0.0000
     46 H46         -1.0005   1.5957  -2.0823 H              1 <1>                0.0000
     47 H47         -2.2407   2.7746  -0.7065 H              1 <1>                0.0000
     48 H48         -3.6127   4.0775   0.8974 H              1 <1>                0.0000
     49 H49         -1.4622   1.0850   4.6802 H              1 <1>                0.0000
     50 H50         -2.9357   3.5972   4.9106 H              1 <1>                0.0000
     51 H51         -4.7469   2.0088   4.3883 H              1 <1>                0.0000
     52 H52         -4.1789   0.9125   5.6719 H              1 <1>                0.0000
     53 H53         -5.1985   3.7643   6.0599 H              1 <1>                0.0000
     54 H54         -6.0668   2.2716   6.4924 H              1 <1>                0.0000
     55 H55         -3.2082   4.3531   7.3230 H              1 <1>                0.0000
     56 H56         -2.6870   3.2716   8.6373 H              1 <1>                0.0000
     57 H57         -2.0942   1.5293   6.9950 H              1 <1>                0.0000
     58 H58         -1.2420   3.0458   6.6127 H              1 <1>                0.0000
     59 H59          3.2802  -2.7001  -2.7412 H              1 <1>                0.0000
     60 H60          5.6800  -2.2140  -2.4846 H              1 <1>                0.0000
     61 H61          6.8887  -1.0076  -4.2585 H              1 <1>                0.0000
     62 H62          3.2963  -0.7814  -6.5499 H              1 <1>                0.0000
@<TRIPOS>BOND
    1    1    2 1     
    2    1   35 1     
    3    2    3 1     
    4    2   36 1     
    5    2   37 1     
    6    3    4 1     
    7    3   28 1     
    8    3   38 1     
    9    4   13 am    
   10    4    5 1     
   11    5    6 1     
   12    5   39 1     
   13    5   40 1     
   14    6    7 1     
   15    6   41 1     
   16    6   42 1     
   17    7    8 1     
   18    7   43 1     
   19    7   44 1     
   20    8   12 1     
   21    8    9 1     
   22    9   10 2     
   23    9   45 1     
   24   10   11 1     
   25   10   15 1     
   26   11   12 2     
   27   11   46 1     
   28   12   13 1     
   29   13   14 2     
   30   15   27 ar    
   31   15   16 ar    
   32   16   17 ar    
   33   16   47 1     
   34   17   18 ar    
   35   17   48 1     
   36   18   19 ar    
   37   19   20 1     
   38   19   27 ar    
   39   20   21 1     
   40   20   49 1     
   41   21   26 1     
   42   21   22 1     
   43   21   50 1     
   44   22   23 1     
   45   22   51 1     
   46   22   52 1     
   47   23   24 1     
   48   23   53 1     
   49   23   54 1     
   50   24   25 1     
   51   25   26 1     
   52   25   55 1     
   53   25   56 1     
   54   26   57 1     
   55   26   58 1     
   56   28   34 ar    
   57   28   29 ar    
   58   29   30 ar    
   59   29   59 1     
   60   30   31 ar    
   61   30   60 1     
   62   31   32 ar    
   63   31   61 1     
   64   32   33 1     
   65   32   34 ar    
   66   34   62 1     
@<TRIPOS>SUBSTRUCTURE
      1 ****           1
@<TRIPOS>SET
DONOR_HYDROGENS      STATIC     ATOMS    <user>   **** ""
2 35 49
ATOM$RED        STATIC     ATOMS    COLORGROUP SYSTEM
2 35 49
