#       Name:                4XV
#       Creating user name   gbret
#       Creation time:       Fri Sep  9 00:43:32 2016


#       File generated by GOLD software.
#

@<TRIPOS>MOLECULE
4XV
    22    23     1
SMALL
NO_CHARGES


@<TRIPOS>ATOM
      1 C1           0.0864   3.3010  -0.0156 C.3            1 <1>                0.0000
      2 C2           0.1069   1.7941  -0.0239 C.ar           1 <1>                0.0000
      3 C3           0.1110   1.0853  -1.2261 C.ar           1 <1>                0.0000
      4 N4           0.0963   1.7559  -2.4385 N.pl3          1 <1>                0.0000
      5 N5           0.1297  -0.2441  -1.1897 N.ar           1 <1>                0.0000
      6 C6           0.1441  -0.8859  -0.0389 C.ar           1 <1>                0.0000
      7 N7           0.1403  -0.2471   1.1135 N.ar           1 <1>                0.0000
      8 C8           0.1278   1.0790   1.1594 C.ar           1 <1>                0.0000
      9 Cl9          0.1229   1.9055   2.6860 Cl             1 <1>                0.0000
     10 C10          0.1651  -2.3927  -0.0408 C.3            1 <1>                0.0000
     11 C11          0.3848  -3.0979   1.2990 C.3            1 <1>                0.0000
     12 C12         -0.9970  -3.1163   0.6424 C.3            1 <1>                0.0000
     13 H13          1.1090   3.6783  -0.0233 H              1 <1>                0.0000
     14 H14         -0.4407   3.6621  -0.8987 H              1 <1>                0.0000
     15 H15         -0.4238   3.6525   0.8812 H              1 <1>                0.0000
     16 H16          0.0830   2.7256  -2.4562 H              1 <1>                0.0000
     17 H17          0.0993   1.2556  -3.2695 H              1 <1>                0.0000
     18 H18          0.5934  -2.8558  -0.9298 H              1 <1>                0.0000
     19 H19          0.9579  -4.0251   1.2918 H              1 <1>                0.0000
     20 H20          0.5142  -2.4720   2.1820 H              1 <1>                0.0000
     21 H21         -1.7767  -2.5025   1.0933 H              1 <1>                0.0000
     22 H22         -1.3330  -4.0556   0.2031 H              1 <1>                0.0000
@<TRIPOS>BOND
    1    1    2 1     
    2    1   13 1     
    3    1   14 1     
    4    1   15 1     
    5    2    8 ar    
    6    2    3 ar    
    7    3    4 1     
    8    3    5 ar    
    9    4   16 1     
   10    4   17 1     
   11    5    6 ar    
   12    6    7 ar    
   13    6   10 1     
   14    7    8 ar    
   15    8    9 1     
   16   10   12 1     
   17   10   11 1     
   18   10   18 1     
   19   11   12 1     
   20   11   19 1     
   21   11   20 1     
   22   12   21 1     
   23   12   22 1     
@<TRIPOS>SUBSTRUCTURE
      1 ****           1
@<TRIPOS>SET
DONOR_HYDROGENS      STATIC     ATOMS    <user>   **** ""
2 16 17
ATOM$RED        STATIC     ATOMS    COLORGROUP SYSTEM
2 16 17
