#       Name:                4Y6
#       Creating user name   gbret
#       Creation time:       Fri Sep  9 00:44:07 2016


#       File generated by GOLD software.
#

@<TRIPOS>MOLECULE
4Y6
    49    52     1
SMALL
NO_CHARGES


@<TRIPOS>ATOM
      1 C1          -4.0145   0.5339  -0.7675 C.3            1 <1>                0.0000
      2 C2          -4.1956  -0.2391   0.5404 C.3            1 <1>                0.0000
      3 C3          -3.4269  -1.5641   0.4665 C.3            1 <1>                0.0000
      4 C4          -1.9871  -1.2672   0.0422 C.3            1 <1>                0.0000
      5 C5          -1.4135  -0.1714   0.8925 C.2            1 <1>                0.0000
      6 C6          -2.1395   0.6445   1.6209 C.2            1 <1>                0.0000
      7 C7          -3.6368   0.5820   1.7044 C.3            1 <1>                0.0000
      8 C8           0.0523  -0.0015   0.9111 C.2            1 <1>                0.0000
      9 N9           0.8234   0.1877  -0.1330 N.2            1 <1>                0.0000
     10 N10          2.1564   0.3061   0.2731 N.am           1 <1>                0.0000
     11 C11          3.2071   0.5074  -0.5466 C.2            1 <1>                0.0000
     12 O12          4.3358   0.5191  -0.0961 O.2            1 <1>                0.0000
     13 C13          2.9870   0.7137  -1.9917 C.ar           1 <1>                0.0000
     14 C14          2.8387   2.0068  -2.5021 C.ar           1 <1>                0.0000
     15 Cl15         2.9127   3.3765  -1.4380 Cl             1 <1>                0.0000
     16 C16          2.6336   2.1914  -3.8552 C.ar           1 <1>                0.0000
     17 C17          2.5745   1.1007  -4.7038 C.ar           1 <1>                0.0000
     18 C18          2.7202  -0.1819  -4.2046 C.ar           1 <1>                0.0000
     19 C19          2.9318  -0.3815  -2.8565 C.ar           1 <1>                0.0000
     20 C20          3.0900  -1.7793  -2.3158 C.3            1 <1>                0.0000
     21 F21          2.9852  -2.6995  -3.3643 F              1 <1>                0.0000
     22 F22          4.3439  -1.9052  -1.7084 F              1 <1>                0.0000
     23 F23          2.0876  -2.0307  -1.3728 F              1 <1>                0.0000
     24 C24          2.2254   0.1850   1.6444 C.ar           1 <1>                0.0000
     25 C25          3.2735   0.2217   2.5583 C.ar           1 <1>                0.0000
     26 C26          3.0190   0.0646   3.9027 C.ar           1 <1>                0.0000
     27 C27          1.7228  -0.1313   4.3588 C.ar           1 <1>                0.0000
     28 C28          0.6695  -0.1715   3.4701 C.ar           1 <1>                0.0000
     29 F29         -0.5905  -0.3629   3.9184 F              1 <1>                0.0000
     30 C30          0.9116  -0.0072   2.1034 C.ar           1 <1>                0.0000
     31 C31         -5.6601  -0.5107   0.7695 C.2            1 <1>                0.0000
     32 O32         -6.4859  -0.1221  -0.0390 O.co2          1 <1>                0.0000
     33 O33         -6.0191  -1.1190   1.7632 O.co2          1 <1>                0.0000
     34 H34         -2.9540   0.7228  -0.9341 H              1 <1>                0.0000
     35 H35         -4.4134  -0.0533  -1.5947 H              1 <1>                0.0000
     36 H36         -4.5473   1.4828  -0.7055 H              1 <1>                0.0000
     37 H37         -3.4287  -2.0437   1.4453 H              1 <1>                0.0000
     38 H38         -3.8969  -2.2197  -0.2666 H              1 <1>                0.0000
     39 H39         -1.3835  -2.1674   0.1574 H              1 <1>                0.0000
     40 H40         -1.9749  -0.9576  -1.0028 H              1 <1>                0.0000
     41 H41         -1.6297   1.4053   2.1933 H              1 <1>                0.0000
     42 H42         -4.0435   1.5925   1.6629 H              1 <1>                0.0000
     43 H43         -3.9271   0.1162   2.6461 H              1 <1>                0.0000
     44 H44          2.5188   3.1894  -4.2516 H              1 <1>                0.0000
     45 H45          2.4136   1.2507  -5.7612 H              1 <1>                0.0000
     46 H46          2.6721  -1.0286  -4.8733 H              1 <1>                0.0000
     47 H47          4.2859   0.3729   2.2139 H              1 <1>                0.0000
     48 H48          3.8358   0.0938   4.6087 H              1 <1>                0.0000
     49 H49          1.5383  -0.2533   5.4159 H              1 <1>                0.0000
@<TRIPOS>BOND
    1    1    2 1     
    2    1   34 1     
    3    1   35 1     
    4    1   36 1     
    5    2    7 1     
    6    2    3 1     
    7    2   31 1     
    8    3    4 1     
    9    3   37 1     
   10    3   38 1     
   11    4    5 1     
   12    4   39 1     
   13    4   40 1     
   14    5    6 2     
   15    5    8 1     
   16    6    7 1     
   17    6   41 1     
   18    7   42 1     
   19    7   43 1     
   20    8   30 1     
   21    8    9 2     
   22    9   10 1     
   23   10   11 am    
   24   10   24 1     
   25   11   12 2     
   26   11   13 1     
   27   13   19 ar    
   28   13   14 ar    
   29   14   15 1     
   30   14   16 ar    
   31   16   17 ar    
   32   16   44 1     
   33   17   18 ar    
   34   17   45 1     
   35   18   19 ar    
   36   18   46 1     
   37   19   20 1     
   38   20   21 1     
   39   20   22 1     
   40   20   23 1     
   41   24   30 ar    
   42   24   25 ar    
   43   25   26 ar    
   44   25   47 1     
   45   26   27 ar    
   46   26   48 1     
   47   27   28 ar    
   48   27   49 1     
   49   28   29 1     
   50   28   30 ar    
   51   31   32 ar    
   52   31   33 ar    
@<TRIPOS>SUBSTRUCTURE
      1 ****           1
