#       Name:                50K
#       Creating user name   gbret
#       Creation time:       Fri Sep  9 00:48:21 2016


#       File generated by GOLD software.
#

@<TRIPOS>MOLECULE
50K
    48    51     1
SMALL
NO_CHARGES


@<TRIPOS>ATOM
      1 N1           3.4213   6.5524   1.7800 N.pl3          1 <1>                0.0000
      2 C2           3.4394   5.2203   1.7727 C.2            1 <1>                0.0000
      3 N3           4.6020   4.5700   1.7581 N.pl3          1 <1>                0.0000
      4 H4           5.4353   5.0664   1.7528 H              1 <1>                0.0000
      5 H5           4.6151   3.6001   1.7528 H              1 <1>                0.0000
      6 C6           2.1696   4.4640   1.7808 C.ar           1 <1>                0.0000
      7 C7           1.0343   5.0085   2.3967 C.ar           1 <1>                0.0000
      8 C8          -0.1446   4.3238   2.4134 C.ar           1 <1>                0.0000
      9 C9          -0.2361   3.0681   1.8156 C.ar           1 <1>                0.0000
     10 N10         -1.2649   2.1674   1.6796 N.pl3          1 <1>                0.0000
     11 H11         -2.1654   2.2951   2.0167 H              1 <1>                0.0000
     12 C12         -0.8275   1.0570   0.9933 C.2            1 <1>                0.0000
     13 C13          0.4808   1.2084   0.6710 C.2            1 <1>                0.0000
     14 C14          0.8983   2.5094   1.1923 C.ar           1 <1>                0.0000
     15 C15          2.1010   3.2157   1.1725 C.ar           1 <1>                0.0000
     16 C16         -1.6569  -0.1202   0.6594 C.ar           1 <1>                0.0000
     17 C17         -2.9982  -0.1537   1.0438 C.ar           1 <1>                0.0000
     18 C18         -3.7611  -1.2624   0.7239 C.ar           1 <1>                0.0000
     19 C19         -3.1595  -2.3034   0.0295 C.ar           1 <1>                0.0000
     20 C20         -1.8256  -2.2046  -0.3204 C.ar           1 <1>                0.0000
     21 N21         -1.1215  -1.1356  -0.0088 N.ar           1 <1>                0.0000
     22 C22         -1.1695  -3.3329  -1.0736 C.3            1 <1>                0.0000
     23 O23         -1.3427  -4.5529  -0.3500 O.3            1 <1>                0.0000
     24 C24         -1.8115  -3.4645  -2.4562 C.3            1 <1>                0.0000
     25 C25         -1.1453  -4.6100  -3.2209 C.3            1 <1>                0.0000
     26 C26          0.3483  -4.3178  -3.3779 C.3            1 <1>                0.0000
     27 C27          0.9903  -4.1863  -1.9954 C.3            1 <1>                0.0000
     28 C28          0.3241  -3.0407  -1.2306 C.3            1 <1>                0.0000
     29 H29          4.2547   7.0488   1.7748 H              1 <1>                0.0000
     30 H30          2.5748   7.0259   1.7866 H              1 <1>                0.0000
     31 H31          1.0942   5.9806   2.8634 H              1 <1>                0.0000
     32 H32         -1.0108   4.7559   2.8922 H              1 <1>                0.0000
     33 H33          1.0968   0.5030   0.1330 H              1 <1>                0.0000
     34 H34          2.9719   2.7954   0.6915 H              1 <1>                0.0000
     35 H35         -3.4341   0.6739   1.5836 H              1 <1>                0.0000
     36 H36         -4.8015  -1.3171   1.0082 H              1 <1>                0.0000
     37 H37         -3.7284  -3.1826  -0.2345 H              1 <1>                0.0000
     38 H38         -2.2672  -4.8010  -0.2128 H              1 <1>                0.0000
     39 H39         -2.8756  -3.6726  -2.3443 H              1 <1>                0.0000
     40 H40         -1.6794  -2.5339  -3.0081 H              1 <1>                0.0000
     41 H41         -1.2774  -5.5406  -2.6689 H              1 <1>                0.0000
     42 H42         -1.6027  -4.7038  -4.2058 H              1 <1>                0.0000
     43 H43          0.8229  -5.1340  -3.9227 H              1 <1>                0.0000
     44 H44          0.4804  -3.3873  -3.9299 H              1 <1>                0.0000
     45 H45          0.8582  -5.1169  -1.4434 H              1 <1>                0.0000
     46 H46          2.0544  -3.9781  -2.1072 H              1 <1>                0.0000
     47 H47          0.4563  -2.1102  -1.7826 H              1 <1>                0.0000
     48 H48          0.7815  -2.9470  -0.2457 H              1 <1>                0.0000
@<TRIPOS>BOND
    1    1    2 2     
    2    1   29 1     
    3    1   30 1     
    4    2    3 1     
    5    2    6 1     
    6    3    4 1     
    7    3    5 1     
    8    6   15 ar    
    9    6    7 ar    
   10    7    8 ar    
   11    7   31 1     
   12    8    9 ar    
   13    8   32 1     
   14    9   14 ar    
   15    9   10 1     
   16   10   11 1     
   17   10   12 1     
   18   12   13 2     
   19   12   16 1     
   20   13   14 1     
   21   13   33 1     
   22   14   15 ar    
   23   15   34 1     
   24   16   21 ar    
   25   16   17 ar    
   26   17   18 ar    
   27   17   35 1     
   28   18   19 ar    
   29   18   36 1     
   30   19   20 ar    
   31   19   37 1     
   32   20   21 ar    
   33   20   22 1     
   34   22   28 1     
   35   22   23 1     
   36   22   24 1     
   37   23   38 1     
   38   24   25 1     
   39   24   39 1     
   40   24   40 1     
   41   25   26 1     
   42   25   41 1     
   43   25   42 1     
   44   26   27 1     
   45   26   43 1     
   46   26   44 1     
   47   27   28 1     
   48   27   45 1     
   49   27   46 1     
   50   28   47 1     
   51   28   48 1     
@<TRIPOS>SUBSTRUCTURE
      1 ****           1
@<TRIPOS>SET
DONOR_HYDROGENS      STATIC     ATOMS    <user>   **** ""
6 29 30 4 5 11 38
ATOM$RED        STATIC     ATOMS    COLORGROUP SYSTEM
6 29 30 4 5 11 38
