#       Name:                51U
#       Creating user name   gbret
#       Creation time:       Fri Sep  9 00:51:00 2016


#       File generated by GOLD software.
#

@<TRIPOS>MOLECULE
51U
    55    57     1
SMALL
NO_CHARGES


@<TRIPOS>ATOM
      1 C1          -2.3501   5.8392  -5.0746 C.3            1 <1>                0.0000
      2 C2          -2.3296   4.3323  -5.0829 C.ar           1 <1>                0.0000
      3 C3          -2.3260   3.6476  -6.2840 C.ar           1 <1>                0.0000
      4 C4          -2.3072   2.2657  -6.2916 C.ar           1 <1>                0.0000
      5 C5          -2.2917   1.5679  -5.0981 C.ar           1 <1>                0.0000
      6 C6          -2.2944   2.2524  -3.8974 C.ar           1 <1>                0.0000
      7 C7          -2.2779   1.4919  -2.5964 C.3            1 <1>                0.0000
      8 N8          -0.8915   1.2633  -2.1819 N.am           1 <1>                0.0000
      9 C9          -0.6308   0.5978  -1.0393 C.2            1 <1>                0.0000
     10 O10         -1.5439   0.1882  -0.3543 O.2            1 <1>                0.0000
     11 C11          0.7954   0.3627  -0.6129 C.3            1 <1>                0.0000
     12 C12          1.4997   1.7139  -0.3687 C.3            1 <1>                0.0000
     13 C13          1.3837   1.8935   1.1681 C.3            1 <1>                0.0000
     14 C14          1.5284   0.4330   1.6637 C.3            1 <1>                0.0000
     15 N15          0.8221  -0.3791   0.6561 N.am           1 <1>                0.0000
     16 C16          0.2887  -1.5992   0.8641 C.2            1 <1>                0.0000
     17 O17         -0.2728  -2.1780  -0.0417 O.2            1 <1>                0.0000
     18 C18          0.3900  -2.2443   2.2223 C.3            1 <1>                0.0000
     19 N19         -0.6324  -3.2920   2.3443 N.4            1 <1>                0.0000
     20 H20         -0.4869  -3.9889   1.6292 H              1 <1>                0.0000
     21 H21         -0.5646  -3.7239   3.2536 H              1 <1>                0.0000
     22 H22         -1.5481  -2.8829   2.2338 H              1 <1>                0.0000
     23 C23          1.7785  -2.8648   2.3899 C.3            1 <1>                0.0000
     24 C24          1.9230  -3.4017   3.7906 C.ar           1 <1>                0.0000
     25 C25          2.4130  -2.5886   4.7954 C.ar           1 <1>                0.0000
     26 C26          2.5456  -3.0812   6.0802 C.ar           1 <1>                0.0000
     27 C27          2.1877  -4.3867   6.3602 C.ar           1 <1>                0.0000
     28 C28          1.6969  -5.1995   5.3556 C.ar           1 <1>                0.0000
     29 C29          1.5603  -4.7057   4.0717 C.ar           1 <1>                0.0000
     30 C30         -2.3088   3.6349  -3.8898 C.ar           1 <1>                0.0000
     31 H31         -1.3275   6.2165  -5.0823 H              1 <1>                0.0000
     32 H32         -2.8772   6.2003  -5.9577 H              1 <1>                0.0000
     33 H33         -2.8603   6.1907  -4.1778 H              1 <1>                0.0000
     34 H34         -2.3381   4.1927  -7.2163 H              1 <1>                0.0000
     35 H35         -2.3051   1.7308  -7.2298 H              1 <1>                0.0000
     36 H36         -2.2777   0.4880  -5.1040 H              1 <1>                0.0000
     37 H37         -2.7954   2.0701  -1.8310 H              1 <1>                0.0000
     38 H38         -2.7801   0.5336  -2.7294 H              1 <1>                0.0000
     39 H39         -0.1612   1.5910  -2.7298 H              1 <1>                0.0000
     40 H40          1.3242  -0.1999  -1.3823 H              1 <1>                0.0000
     41 H41          2.5451   1.6646  -0.6734 H              1 <1>                0.0000
     42 H42          0.9823   2.5185  -0.8911 H              1 <1>                0.0000
     43 H43          2.1914   2.5176   1.5506 H              1 <1>                0.0000
     44 H44          0.4118   2.3043   1.4412 H              1 <1>                0.0000
     45 H45          2.5801   0.1503   1.7093 H              1 <1>                0.0000
     46 H46          1.0604   0.3159   2.6411 H              1 <1>                0.0000
     47 H47          0.2328  -1.4915   2.9947 H              1 <1>                0.0000
     48 H48          1.9019  -3.6779   1.6745 H              1 <1>                0.0000
     49 H49          2.5398  -2.1053   2.2116 H              1 <1>                0.0000
     50 H50          2.6926  -1.5686   4.5765 H              1 <1>                0.0000
     51 H51          2.9291  -2.4461   6.8650 H              1 <1>                0.0000
     52 H52          2.2920  -4.7717   7.3639 H              1 <1>                0.0000
     53 H53          1.4176  -6.2196   5.5744 H              1 <1>                0.0000
     54 H54          1.1768  -5.3407   3.2869 H              1 <1>                0.0000
     55 H55         -2.3109   4.1698  -2.9515 H              1 <1>                0.0000
@<TRIPOS>BOND
    1    1    2 1     
    2    1   31 1     
    3    1   32 1     
    4    1   33 1     
    5    2   30 ar    
    6    2    3 ar    
    7    3    4 ar    
    8    3   34 1     
    9    4    5 ar    
   10    4   35 1     
   11    5    6 ar    
   12    5   36 1     
   13    6    7 1     
   14    6   30 ar    
   15    7    8 1     
   16    7   37 1     
   17    7   38 1     
   18    8    9 am    
   19    8   39 1     
   20    9   10 2     
   21    9   11 1     
   22   11   15 1     
   23   11   12 1     
   24   11   40 1     
   25   12   13 1     
   26   12   41 1     
   27   12   42 1     
   28   13   14 1     
   29   13   43 1     
   30   13   44 1     
   31   14   15 1     
   32   14   45 1     
   33   14   46 1     
   34   15   16 am    
   35   16   17 2     
   36   16   18 1     
   37   18   19 1     
   38   18   23 1     
   39   18   47 1     
   40   19   20 1     
   41   19   21 1     
   42   19   22 1     
   43   23   24 1     
   44   23   48 1     
   45   23   49 1     
   46   24   29 ar    
   47   24   25 ar    
   48   25   26 ar    
   49   25   50 1     
   50   26   27 ar    
   51   26   51 1     
   52   27   28 ar    
   53   27   52 1     
   54   28   29 ar    
   55   28   53 1     
   56   29   54 1     
   57   30   55 1     
@<TRIPOS>SUBSTRUCTURE
      1 ****           1
@<TRIPOS>SET
DONOR_HYDROGENS      STATIC     ATOMS    <user>   **** ""
4 39 20 21 22
ATOM$RED        STATIC     ATOMS    COLORGROUP SYSTEM
4 39 20 21 22
