#       Name:                52C
#       Creating user name   gbret
#       Creation time:       Fri Sep  9 00:52:07 2016


#       File generated by GOLD software.
#

@<TRIPOS>MOLECULE
52C
    16    17     1
SMALL
NO_CHARGES


@<TRIPOS>ATOM
      1 Cl1         -0.9163  -2.5543  -0.0031 Cl             1 <1>                0.0000
      2 C2          -0.9399  -0.8185   0.0065 C.ar           1 <1>                0.0000
      3 C3          -2.1444  -0.1423   0.0274 C.ar           1 <1>                0.0000
      4 C4          -2.1641   1.2403   0.0345 C.ar           1 <1>                0.0000
      5 C5          -0.9794   1.9552   0.0212 C.ar           1 <1>                0.0000
      6 C6           0.2302   1.2922   0.0003 C.ar           1 <1>                0.0000
      7 C7           0.2582  -0.1025  -0.0011 C.ar           1 <1>                0.0000
      8 C8           1.5525  -0.8198  -0.0230 C.2            1 <1>                0.0000
      9 N9           2.7687  -0.2718  -0.0368 N.2            1 <1>                0.0000
     10 N10          3.6269  -1.2338  -0.0532 N.2            1 <1>                0.0000
     11 N11          3.0031  -2.3595  -0.0503 N.2            1 <1>                0.0000
     12 N12          1.7326  -2.1417  -0.0269 N.pl3          1 <1>                0.0000
     13 H13         -3.0725  -0.6947   0.0378 H              1 <1>                0.0000
     14 H14         -3.1082   1.7645   0.0501 H              1 <1>                0.0000
     15 H15         -1.0017   3.0350   0.0268 H              1 <1>                0.0000
     16 H16          1.1538   1.8518  -0.0108 H              1 <1>                0.0000
@<TRIPOS>BOND
    1    1    2 1     
    2    2    7 ar    
    3    2    3 ar    
    4    3    4 ar    
    5    3   13 1     
    6    4    5 ar    
    7    4   14 1     
    8    5    6 ar    
    9    5   15 1     
   10    6    7 ar    
   11    6   16 1     
   12    7    8 1     
   13    8   12 1     
   14    8    9 2     
   15    9   10 1     
   16   10   11 2     
   17   11   12 1     
@<TRIPOS>SUBSTRUCTURE
      1 ****           1
