#       Name:                530
#       Creating user name   gbret
#       Creation time:       Fri Sep  9 00:53:39 2016


#       File generated by GOLD software.
#

@<TRIPOS>MOLECULE
530
    40    43     1
SMALL
NO_CHARGES


@<TRIPOS>ATOM
      1 F1           4.2774  -6.8469   0.3815 F              1 <1>                0.0000
      2 C2           4.2564  -5.4961   0.3959 C.ar           1 <1>                0.0000
      3 C3           4.3422  -4.8160   1.5990 C.ar           1 <1>                0.0000
      4 C4           4.3210  -3.4346   1.6164 C.ar           1 <1>                0.0000
      5 C5           4.2136  -2.7280   0.4282 C.ar           1 <1>                0.0000
      6 O6           4.1930  -1.3683   0.4443 O.3            1 <1>                0.0000
      7 C7           2.9910  -0.7495   0.3610 C.ar           1 <1>                0.0000
      8 N8           1.8886  -1.4890   0.3827 N.ar           1 <1>                0.0000
      9 C9           0.6916  -0.9358   0.3050 C.ar           1 <1>                0.0000
     10 C10          0.6035   0.4530   0.1985 C.ar           1 <1>                0.0000
     11 C11         -0.4929   1.4144   0.0928 C.2            1 <1>                0.0000
     12 N12         -1.8562   1.1136   0.0741 N.pl3          1 <1>                0.0000
     13 C13         -2.8425   2.1912  -0.0369 C.3            1 <1>                0.0000
     14 C14         -3.0593   2.5372  -1.5133 C.3            1 <1>                0.0000
     15 C15         -4.1478   3.6081  -1.6238 C.3            1 <1>                0.0000
     16 O16         -5.3484   3.1298  -1.0139 O.3            1 <1>                0.0000
     17 C17         -5.2180   2.8348   0.3783 C.3            1 <1>                0.0000
     18 C18         -4.1725   1.7329   0.5693 C.3            1 <1>                0.0000
     19 N19          0.0371   2.6071   0.0196 N.2            1 <1>                0.0000
     20 N20          1.4321   2.5161   0.0690 N.pl3          1 <1>                0.0000
     21 H21          2.0445   3.2675   0.0317 H              1 <1>                0.0000
     22 C22          1.7968   1.2082   0.1783 C.ar           1 <1>                0.0000
     23 N23          2.9591   0.5669   0.2667 N.ar           1 <1>                0.0000
     24 C24          4.1275  -3.4105  -0.7785 C.ar           1 <1>                0.0000
     25 F25          4.0231  -2.7243  -1.9376 F              1 <1>                0.0000
     26 C26          4.1548  -4.7935  -0.7926 C.ar           1 <1>                0.0000
     27 H27          4.4256  -5.3660   2.5247 H              1 <1>                0.0000
     28 H28          4.3876  -2.9052   2.5554 H              1 <1>                0.0000
     29 H29         -0.1998  -1.5452   0.3231 H              1 <1>                0.0000
     30 H30         -2.1503   0.1913   0.1347 H              1 <1>                0.0000
     31 H31         -2.4828   3.0712   0.4962 H              1 <1>                0.0000
     32 H32         -2.1303   2.9169  -1.9386 H              1 <1>                0.0000
     33 H33         -3.3707   1.6440  -2.0549 H              1 <1>                0.0000
     34 H34         -3.8186   4.5148  -1.1164 H              1 <1>                0.0000
     35 H35         -4.3365   3.8275  -2.6747 H              1 <1>                0.0000
     36 H36         -4.9028   3.7315   0.9119 H              1 <1>                0.0000
     37 H37         -6.1776   2.4972   0.7697 H              1 <1>                0.0000
     38 H38         -4.5064   0.8235   0.0698 H              1 <1>                0.0000
     39 H39         -4.0396   1.5374   1.6334 H              1 <1>                0.0000
     40 H40          4.0883  -5.3253  -1.7303 H              1 <1>                0.0000
@<TRIPOS>BOND
    1    1    2 1     
    2    2   26 ar    
    3    2    3 ar    
    4    3    4 ar    
    5    3   27 1     
    6    4    5 ar    
    7    4   28 1     
    8    5    6 1     
    9    5   24 ar    
   10    6    7 1     
   11    7   23 ar    
   12    7    8 ar    
   13    8    9 ar    
   14    9   10 ar    
   15    9   29 1     
   16   10   22 ar    
   17   10   11 1     
   18   11   12 1     
   19   11   19 2     
   20   12   13 1     
   21   12   30 1     
   22   13   18 1     
   23   13   14 1     
   24   13   31 1     
   25   14   15 1     
   26   14   32 1     
   27   14   33 1     
   28   15   16 1     
   29   15   34 1     
   30   15   35 1     
   31   16   17 1     
   32   17   18 1     
   33   17   36 1     
   34   17   37 1     
   35   18   38 1     
   36   18   39 1     
   37   19   20 1     
   38   20   21 1     
   39   20   22 1     
   40   22   23 ar    
   41   24   25 1     
   42   24   26 ar    
   43   26   40 1     
@<TRIPOS>SUBSTRUCTURE
      1 ****           1
@<TRIPOS>SET
DONOR_HYDROGENS      STATIC     ATOMS    <user>   **** ""
2 30 21
ATOM$RED        STATIC     ATOMS    COLORGROUP SYSTEM
2 30 21
