#       Name:                532
#       Creating user name   gbret
#       Creation time:       Fri Sep  9 00:53:47 2016


#       File generated by GOLD software.
#

@<TRIPOS>MOLECULE
532
    42    45     1
SMALL
NO_CHARGES


@<TRIPOS>ATOM
      1 C1          -1.6329   3.9593  -1.3093 C.3            1 <1>                0.0000
      2 N2          -1.3388   2.5357  -1.4913 N.am           1 <1>                0.0000
      3 C3          -1.0770   1.9407  -2.7006 C.cat          1 <1>                0.0000
      4 N4          -1.0604   2.6206  -3.8950 N.pl3          1 <1>                0.0000
      5 N5          -0.8465   0.6684  -2.5956 N.pl3          1 <1>                0.0000
      6 H6          -0.6408   0.0611  -3.3234 H              1 <1>                0.0000
      7 C7          -0.9531   0.3144  -1.1712 C.3            1 <1>                0.0000
      8 C8          -1.2822   1.6295  -0.4927 C.2            1 <1>                0.0000
      9 O9          -1.4618   1.8240   0.6906 O.2            1 <1>                0.0000
     10 C10         -2.0583  -0.6875  -0.9567 C.2            1 <1>                0.0000
     11 C11         -2.5598  -1.4734  -1.9799 C.2            1 <1>                0.0000
     12 C12         -3.5358  -2.3085  -1.6204 C.2            1 <1>                0.0000
     13 S13         -3.8687  -2.1225   0.0966 S.3            1 <1>                0.0000
     14 C14         -2.6234  -0.8881   0.2348 C.2            1 <1>                0.0000
     15 C15          0.3581  -0.2253  -0.6609 C.ar           1 <1>                0.0000
     16 C16          1.3771  -0.5179  -1.5497 C.ar           1 <1>                0.0000
     17 C17          2.5830  -1.0135  -1.0883 C.ar           1 <1>                0.0000
     18 C18          2.7761  -1.2184   0.2631 C.ar           1 <1>                0.0000
     19 C19          1.7535  -0.9250   1.1627 C.ar           1 <1>                0.0000
     20 C20          0.5422  -0.4214   0.6926 C.ar           1 <1>                0.0000
     21 C21          1.9553  -1.1433   2.6165 C.ar           1 <1>                0.0000
     22 C22          3.1704  -1.6381   3.0984 C.ar           1 <1>                0.0000
     23 C23          3.3085  -1.8241   4.4630 C.ar           1 <1>                0.0000
     24 C24          2.2496  -1.5173   5.2983 C.ar           1 <1>                0.0000
     25 N25          1.1145  -1.0521   4.8140 N.ar           1 <1>                0.0000
     26 C26          0.9388  -0.8529   3.5236 C.ar           1 <1>                0.0000
     27 H27         -0.7031   4.5044  -1.1466 H              1 <1>                0.0000
     28 H28         -2.1289   4.3446  -2.2001 H              1 <1>                0.0000
     29 H29         -2.2853   4.0879  -0.4457 H              1 <1>                0.0000
     30 H30         -1.2405   3.5735  -3.9131 H              1 <1>                0.0000
     31 H31         -0.8686   2.1474  -4.7197 H              1 <1>                0.0000
     32 H32         -2.1892  -1.4145  -2.9926 H              1 <1>                0.0000
     33 H33         -4.0442  -2.9937  -2.2825 H              1 <1>                0.0000
     34 H34         -2.3603  -0.3683   1.1442 H              1 <1>                0.0000
     35 H35          1.2302  -0.3591  -2.6078 H              1 <1>                0.0000
     36 H36          3.3749  -1.2409  -1.7865 H              1 <1>                0.0000
     37 H37          3.7181  -1.6058   0.6224 H              1 <1>                0.0000
     38 H38         -0.2539  -0.1923   1.3856 H              1 <1>                0.0000
     39 H39          3.9808  -1.8697   2.4231 H              1 <1>                0.0000
     40 H40          4.2330  -2.2051   4.8711 H              1 <1>                0.0000
     41 H41          2.3539  -1.6612   6.3635 H              1 <1>                0.0000
     42 H42         -0.0054  -0.4706   3.1648 H              1 <1>                0.0000
@<TRIPOS>BOND
    1    1    2 1     
    2    1   27 1     
    3    1   28 1     
    4    1   29 1     
    5    2    8 am    
    6    2    3 ar    
    7    3    4 ar    
    8    3    5 ar    
    9    4   30 1     
   10    4   31 1     
   11    5    6 1     
   12    5    7 1     
   13    7    8 1     
   14    7   10 1     
   15    7   15 1     
   16    8    9 2     
   17   10   14 2     
   18   10   11 1     
   19   11   12 2     
   20   11   32 1     
   21   12   13 1     
   22   12   33 1     
   23   13   14 1     
   24   14   34 1     
   25   15   20 ar    
   26   15   16 ar    
   27   16   17 ar    
   28   16   35 1     
   29   17   18 ar    
   30   17   36 1     
   31   18   19 ar    
   32   18   37 1     
   33   19   20 ar    
   34   19   21 1     
   35   20   38 1     
   36   21   26 ar    
   37   21   22 ar    
   38   22   23 ar    
   39   22   39 1     
   40   23   24 ar    
   41   23   40 1     
   42   24   25 ar    
   43   24   41 1     
   44   25   26 ar    
   45   26   42 1     
@<TRIPOS>SUBSTRUCTURE
      1 ****           1
@<TRIPOS>SET
DONOR_HYDROGENS      STATIC     ATOMS    <user>   **** ""
3 30 31 6
ATOM$RED        STATIC     ATOMS    COLORGROUP SYSTEM
3 30 31 6
