#       Name:                54O
#       Creating user name   gbret
#       Creation time:       Fri Sep  9 00:57:12 2016


#       File generated by GOLD software.
#

@<TRIPOS>MOLECULE
54O
    15    14     1
SMALL
NO_CHARGES


@<TRIPOS>ATOM
      1 O1           1.3446   2.5257   0.0007 O.3            1 <1>                0.0000
      2 C2           1.3640   1.0968  -0.0072 C.3            1 <1>                0.0000
      3 C3          -0.0714   0.5673   0.0037 C.3            1 <1>                0.0000
      4 C4          -0.0507  -0.9626  -0.0047 C.3            1 <1>                0.0000
      5 S5          -1.7525  -1.5905   0.0081 S.o2           1 <1>                0.0000
      6 O6          -2.4421  -1.1005  -1.1752 O.co2          1 <1>                0.0000
      7 O7          -1.7159  -3.0447   0.0000 O.co2          1 <1>                0.0000
      8 O8          -2.4194  -1.1133   1.2096 O.co2          1 <1>                0.0000
      9 H9           2.2225   2.9310  -0.0055 H              1 <1>                0.0000
     10 H10          1.8742   0.7453  -0.9040 H              1 <1>                0.0000
     11 H11          1.8912   0.7358   0.8759 H              1 <1>                0.0000
     12 H12         -0.5816   0.9188   0.9005 H              1 <1>                0.0000
     13 H13         -0.5986   0.9283  -0.8794 H              1 <1>                0.0000
     14 H14          0.4595  -1.3141  -0.9015 H              1 <1>                0.0000
     15 H15          0.4765  -1.3237   0.8783 H              1 <1>                0.0000
@<TRIPOS>BOND
    1    1    2 1     
    2    1    9 1     
    3    2    3 1     
    4    2   10 1     
    5    2   11 1     
    6    3    4 1     
    7    3   12 1     
    8    3   13 1     
    9    4    5 1     
   10    4   14 1     
   11    4   15 1     
   12    5    6 ar    
   13    5    7 ar    
   14    5    8 ar    
@<TRIPOS>SUBSTRUCTURE
      1 ****           1
@<TRIPOS>SET
DONOR_HYDROGENS      STATIC     ATOMS    <user>   **** ""
1 9
ATOM$RED        STATIC     ATOMS    COLORGROUP SYSTEM
1 9
