#       Name:                556
#       Creating user name   gbret
#       Creation time:       Fri Sep  9 00:58:06 2016


#       File generated by GOLD software.
#

@<TRIPOS>MOLECULE
556
    24    26     1
SMALL
NO_CHARGES


@<TRIPOS>ATOM
      1 C1          -1.3459   2.6522  -0.9059 C.3            1 <1>                0.0000
      2 C2           0.1617   2.9909  -0.9185 C.3            1 <1>                0.0000
      3 C3           0.8238   1.7737  -0.3036 C.2            1 <1>                0.0000
      4 N4           1.9521   1.3841   0.2360 N.pl3          1 <1>                0.0000
      5 H5           2.7354   1.9432   0.3577 H              1 <1>                0.0000
      6 C6           1.8605   0.0995   0.5936 C.2            1 <1>                0.0000
      7 C7           0.6155  -0.3422   0.2618 C.2            1 <1>                0.0000
      8 C8           0.0747  -1.6963   0.4737 C.2            1 <1>                0.0000
      9 C9           0.7056  -2.6943   1.1283 C.2            1 <1>                0.0000
     10 C10         -0.0041  -3.8754   1.1985 C.2            1 <1>                0.0000
     11 C11         -1.2032  -3.8516   0.6101 C.2            1 <1>                0.0000
     12 S12         -1.4963  -2.2610  -0.0804 S.3            1 <1>                0.0000
     13 N13         -0.0397   0.7285  -0.3115 N.pl3          1 <1>                0.0000
     14 C14         -1.3249   1.1086  -0.9144 C.3            1 <1>                0.0000
     15 H15         -1.8227   3.0305  -0.0017 H              1 <1>                0.0000
     16 H16         -1.8398   3.0402  -1.7967 H              1 <1>                0.0000
     17 H17          0.5105   3.1391  -1.9404 H              1 <1>                0.0000
     18 H18          0.3583   3.8772  -0.3153 H              1 <1>                0.0000
     19 H19          2.6375  -0.4857   1.0629 H              1 <1>                0.0000
     20 H20          1.6877  -2.5776   1.5622 H              1 <1>                0.0000
     21 H21          0.3816  -4.7549   1.6927 H              1 <1>                0.0000
     22 H22         -1.8909  -4.6832   0.5679 H              1 <1>                0.0000
     23 H23         -2.1505   0.7174  -0.3198 H              1 <1>                0.0000
     24 H24         -1.3863   0.7363  -1.9370 H              1 <1>                0.0000
@<TRIPOS>BOND
    1    1   14 1     
    2    1    2 1     
    3    1   15 1     
    4    1   16 1     
    5    2    3 1     
    6    2   17 1     
    7    2   18 1     
    8    3   13 2     
    9    3    4 1     
   10    4    5 1     
   11    4    6 1     
   12    6    7 2     
   13    6   19 1     
   14    7    8 1     
   15    7   13 1     
   16    8   12 1     
   17    8    9 2     
   18    9   10 1     
   19    9   20 1     
   20   10   11 2     
   21   10   21 1     
   22   11   12 1     
   23   11   22 1     
   24   13   14 1     
   25   14   23 1     
   26   14   24 1     
@<TRIPOS>SUBSTRUCTURE
      1 ****           1
@<TRIPOS>SET
DONOR_HYDROGENS      STATIC     ATOMS    <user>   **** ""
1 5
ATOM$RED        STATIC     ATOMS    COLORGROUP SYSTEM
1 5
