#       Name:                55K
#       Creating user name   gbret
#       Creation time:       Fri Sep  9 00:58:59 2016


#       File generated by GOLD software.
#

@<TRIPOS>MOLECULE
55K
    49    52     1
SMALL
NO_CHARGES


@<TRIPOS>ATOM
      1 C1          -1.7462   1.5784  -5.1386 C.3            1 <1>                0.0000
      2 C2          -1.7378   0.0502  -5.2140 C.3            1 <1>                0.0000
      3 N3          -0.8116  -0.4831  -4.2120 N.am           1 <1>                0.0000
      4 C4           0.5102  -0.7189  -4.4239 C.2            1 <1>                0.0000
      5 O5           1.1139  -0.5251  -5.4625 O.2            1 <1>                0.0000
      6 C6           1.0816  -1.2481  -3.1798 C.ar           1 <1>                0.0000
      7 C7           2.3012  -1.6848  -2.6924 C.ar           1 <1>                0.0000
      8 C8           2.3995  -2.1291  -1.3746 C.ar           1 <1>                0.0000
      9 C9           1.3349  -2.1598  -0.5134 C.ar           1 <1>                0.0000
     10 C10          0.0791  -1.7248  -0.9691 C.ar           1 <1>                0.0000
     11 C11         -1.1042  -1.6946  -0.2120 C.ar           1 <1>                0.0000
     12 C12         -2.2491  -1.2407  -0.8080 C.ar           1 <1>                0.0000
     13 C13         -2.3014  -0.8052  -2.1320 C.ar           1 <1>                0.0000
     14 C14         -1.1575  -0.8142  -2.9080 C.ar           1 <1>                0.0000
     15 C15         -0.0021  -1.2832  -2.2902 C.ar           1 <1>                0.0000
     16 S16         -1.1136  -2.2298   1.4667 S.o2           1 <1>                0.0000
     17 O17         -2.4358  -2.0255   1.9456 O.2            1 <1>                0.0000
     18 O18         -0.4659  -3.4944   1.4883 O.2            1 <1>                0.0000
     19 N19         -0.1426  -1.1925   2.3173 N.pl3          1 <1>                0.0000
     20 C20         -0.5037   0.2228   2.4296 C.3            1 <1>                0.0000
     21 C21          0.2919   0.8633   3.5688 C.3            1 <1>                0.0000
     22 C22          1.8012   0.8099   3.2544 C.3            1 <1>                0.0000
     23 C23          2.1074   2.1919   2.6257 C.3            1 <1>                0.0000
     24 C24          1.2199   3.1503   3.4581 C.3            1 <1>                0.0000
     25 C25         -0.0778   2.3514   3.6983 C.3            1 <1>                0.0000
     26 C26          0.0075   0.1462   4.8634 C.2            1 <1>                0.0000
     27 O27          0.2469  -1.0449   4.9659 O.co2          1 <1>                0.0000
     28 O28         -0.4619   0.7572   5.8083 O.co2          1 <1>                0.0000
     29 H29         -0.7429   1.9573  -5.3331 H              1 <1>                0.0000
     30 H30         -2.4353   1.9751  -5.8841 H              1 <1>                0.0000
     31 H31         -2.0664   1.8913  -4.1448 H              1 <1>                0.0000
     32 H32         -2.7411  -0.3287  -5.0195 H              1 <1>                0.0000
     33 H33         -1.4176  -0.2627  -6.2078 H              1 <1>                0.0000
     34 H34          3.1728  -1.6817  -3.3301 H              1 <1>                0.0000
     35 H35          3.3610  -2.4654  -1.0157 H              1 <1>                0.0000
     36 H36          1.4587  -2.5132   0.4996 H              1 <1>                0.0000
     37 H37         -3.1576  -1.2189  -0.2243 H              1 <1>                0.0000
     38 H38         -3.2346  -0.4571  -2.5496 H              1 <1>                0.0000
     39 H39          0.6652  -1.5221   2.7412 H              1 <1>                0.0000
     40 H40         -0.2727   0.7321   1.4940 H              1 <1>                0.0000
     41 H41         -1.5702   0.3103   2.6373 H              1 <1>                0.0000
     42 H42          2.3768   0.6712   4.1696 H              1 <1>                0.0000
     43 H43          2.0148   0.0116   2.5436 H              1 <1>                0.0000
     44 H44          3.1616   2.4437   2.7410 H              1 <1>                0.0000
     45 H45          1.8172   2.2112   1.5752 H              1 <1>                0.0000
     46 H46          1.7016   3.3895   4.4061 H              1 <1>                0.0000
     47 H47          1.0092   4.0600   2.8958 H              1 <1>                0.0000
     48 H48         -0.8239   2.6172   2.9495 H              1 <1>                0.0000
     49 H49         -0.4620   2.5550   4.6977 H              1 <1>                0.0000
@<TRIPOS>BOND
    1    1    2 1     
    2    1   29 1     
    3    1   30 1     
    4    1   31 1     
    5    2    3 1     
    6    2   32 1     
    7    2   33 1     
    8    3   14 1     
    9    3    4 am    
   10    4    5 2     
   11    4    6 1     
   12    6   15 ar    
   13    6    7 ar    
   14    7    8 ar    
   15    7   34 1     
   16    8    9 ar    
   17    8   35 1     
   18    9   10 ar    
   19    9   36 1     
   20   10   15 ar    
   21   10   11 ar    
   22   11   12 ar    
   23   11   16 1     
   24   12   13 ar    
   25   12   37 1     
   26   13   14 ar    
   27   13   38 1     
   28   14   15 ar    
   29   16   17 2     
   30   16   18 2     
   31   16   19 1     
   32   19   20 1     
   33   19   39 1     
   34   20   21 1     
   35   20   40 1     
   36   20   41 1     
   37   21   25 1     
   38   21   22 1     
   39   21   26 1     
   40   22   23 1     
   41   22   42 1     
   42   22   43 1     
   43   23   24 1     
   44   23   44 1     
   45   23   45 1     
   46   24   25 1     
   47   24   46 1     
   48   24   47 1     
   49   25   48 1     
   50   25   49 1     
   51   26   27 ar    
   52   26   28 ar    
@<TRIPOS>SUBSTRUCTURE
      1 ****           1
@<TRIPOS>SET
DONOR_HYDROGENS      STATIC     ATOMS    <user>   **** ""
1 39
ATOM$RED        STATIC     ATOMS    COLORGROUP SYSTEM
1 39
