#       Name:                56P
#       Creating user name   gbret
#       Creation time:       Fri Sep  9 01:01:11 2016


#       File generated by GOLD software.
#

@<TRIPOS>MOLECULE
56P
    52    52     1
SMALL
NO_CHARGES


@<TRIPOS>ATOM
      1 C1          -1.4957   1.4442  -2.1745 C.3            1 <1>                0.0000
      2 C2          -0.5379   0.3079  -2.5379 C.3            1 <1>                0.0000
      3 N3           0.2929  -0.0207  -1.3768 N.pl3          1 <1>                0.0000
      4 C4          -0.0954   0.4446  -0.0431 C.3            1 <1>                0.0000
      5 C5          -1.0966  -0.5376   0.5683 C.3            1 <1>                0.0000
      6 C6          -1.4065  -0.1204   2.0073 C.3            1 <1>                0.0000
      7 C7          -2.4077  -1.1026   2.6187 C.3            1 <1>                0.0000
      8 C8          -2.7176  -0.6854   4.0577 C.3            1 <1>                0.0000
      9 C9          -3.7189  -1.6676   4.6691 C.3            1 <1>                0.0000
     10 N10         -4.0164  -1.2670   6.0507 N.4            1 <1>                0.0000
     11 H11         -4.6767  -1.9148   6.4539 H              1 <1>                0.0000
     12 H12         -3.1657  -1.2727   6.5932 H              1 <1>                0.0000
     13 H13         -4.4113  -0.3385   6.0541 H              1 <1>                0.0000
     14 S14          1.6709  -0.9181  -1.5721 S.o2           1 <1>                0.0000
     15 O15          1.9362  -1.5248  -0.3148 O.2            1 <1>                0.0000
     16 O16          1.5003  -1.6595  -2.7722 O.2            1 <1>                0.0000
     17 C17          2.9910   0.2109  -1.8681 C.ar           1 <1>                0.0000
     18 C18          3.2959   0.5934  -3.1613 C.ar           1 <1>                0.0000
     19 C19          4.3309   1.4786  -3.3947 C.ar           1 <1>                0.0000
     20 C20          5.0625   1.9832  -2.3326 C.ar           1 <1>                0.0000
     21 F21          6.0743   2.8491  -2.5596 F              1 <1>                0.0000
     22 C22          4.7559   1.5998  -1.0382 C.ar           1 <1>                0.0000
     23 C23          5.5512   2.1480   0.1186 C.3            1 <1>                0.0000
     24 C24          3.7171   0.7179  -0.8068 C.ar           1 <1>                0.0000
     25 C25         -1.3312  -0.9061  -2.9476 C.2            1 <1>                0.0000
     26 O26         -1.6033  -1.7577  -2.1280 O.2            1 <1>                0.0000
     27 N27         -1.7384  -1.0455  -4.2248 N.am           1 <1>                0.0000
     28 O28         -2.4838  -2.1862  -4.6098 O.3            1 <1>                0.0000
     29 H29         -0.9219   2.3223  -1.8781 H              1 <1>                0.0000
     30 H30         -2.1139   1.6887  -3.0383 H              1 <1>                0.0000
     31 H31         -2.1338   1.1313  -1.3480 H              1 <1>                0.0000
     32 H32          0.1002   0.6208  -3.3643 H              1 <1>                0.0000
     33 H33          0.7883   0.5052   0.5922 H              1 <1>                0.0000
     34 H34         -0.5547   1.4300  -0.1215 H              1 <1>                0.0000
     35 H35         -2.0157  -0.5314  -0.0177 H              1 <1>                0.0000
     36 H36         -0.6701  -1.5406   0.5646 H              1 <1>                0.0000
     37 H37         -0.4875  -0.1265   2.5933 H              1 <1>                0.0000
     38 H38         -1.8331   0.8827   2.0110 H              1 <1>                0.0000
     39 H39         -3.3268  -1.0964   2.0327 H              1 <1>                0.0000
     40 H40         -1.9812  -2.1056   2.6150 H              1 <1>                0.0000
     41 H41         -1.7986  -0.6915   4.6437 H              1 <1>                0.0000
     42 H42         -3.1442   0.3177   4.0614 H              1 <1>                0.0000
     43 H43         -4.6379  -1.6614   4.0831 H              1 <1>                0.0000
     44 H44         -3.2923  -2.6707   4.6654 H              1 <1>                0.0000
     45 H45          2.7252   0.1997  -3.9894 H              1 <1>                0.0000
     46 H46          4.5694   1.7767  -4.4049 H              1 <1>                0.0000
     47 H47          5.0870   3.0674   0.4753 H              1 <1>                0.0000
     48 H48          5.5720   1.4149   0.9250 H              1 <1>                0.0000
     49 H49          6.5697   2.3581  -0.2078 H              1 <1>                0.0000
     50 H50          3.4776   0.4190   0.2030 H              1 <1>                0.0000
     51 H51         -1.5208  -0.3645  -4.8803 H              1 <1>                0.0000
     52 H52         -2.7305  -2.1977  -5.5447 H              1 <1>                0.0000
@<TRIPOS>BOND
    1    1    2 1     
    2    1   29 1     
    3    1   30 1     
    4    1   31 1     
    5    2    3 1     
    6    2   25 1     
    7    2   32 1     
    8    3    4 1     
    9    3   14 1     
   10    4    5 1     
   11    4   33 1     
   12    4   34 1     
   13    5    6 1     
   14    5   35 1     
   15    5   36 1     
   16    6    7 1     
   17    6   37 1     
   18    6   38 1     
   19    7    8 1     
   20    7   39 1     
   21    7   40 1     
   22    8    9 1     
   23    8   41 1     
   24    8   42 1     
   25    9   10 1     
   26    9   43 1     
   27    9   44 1     
   28   10   11 1     
   29   10   12 1     
   30   10   13 1     
   31   14   15 2     
   32   14   16 2     
   33   14   17 1     
   34   17   24 ar    
   35   17   18 ar    
   36   18   19 ar    
   37   18   45 1     
   38   19   20 ar    
   39   19   46 1     
   40   20   21 1     
   41   20   22 ar    
   42   22   23 1     
   43   22   24 ar    
   44   23   47 1     
   45   23   48 1     
   46   23   49 1     
   47   24   50 1     
   48   25   26 2     
   49   25   27 am    
   50   27   28 1     
   51   27   51 1     
   52   28   52 1     
@<TRIPOS>SUBSTRUCTURE
      1 ****           1
@<TRIPOS>SET
DONOR_HYDROGENS      STATIC     ATOMS    <user>   **** ""
5 11 12 13 51 52
ATOM$RED        STATIC     ATOMS    COLORGROUP SYSTEM
5 11 12 13 51 52
