#       Name:                59F
#       Creating user name   gbret
#       Creation time:       Fri Sep  9 01:06:58 2016


#       File generated by GOLD software.
#

@<TRIPOS>MOLECULE
59F
    66    68     1
SMALL
NO_CHARGES


@<TRIPOS>ATOM
      1 C1          -4.1567   2.8103   7.1559 C.3            1 <1>                0.0000
      2 C2          -3.8272   3.9217   6.1574 C.3            1 <1>                0.0000
      3 N3          -3.5146   3.3303   4.8540 N.am           1 <1>                0.0000
      4 C4          -2.1361   2.9598   4.5325 C.3            1 <1>                0.0000
      5 C5          -2.1043   1.6667   3.7228 C.3            1 <1>                0.0000
      6 N6          -3.0036   1.7591   2.5723 N.am           1 <1>                0.0000
      7 C7          -2.6513   1.2010   1.3972 C.2            1 <1>                0.0000
      8 O8          -3.4310   1.2043   0.4648 O.2            1 <1>                0.0000
      9 N9          -1.4343   0.6393   1.2559 N.am           1 <1>                0.0000
     10 C10         -1.0093   0.1311  -0.0507 C.3            1 <1>                0.0000
     11 C11          0.4959   0.1323  -0.1249 C.2            1 <1>                0.0000
     12 O12          1.1493   0.5196   0.8207 O.2            1 <1>                0.0000
     13 N13          1.1159  -0.2970  -1.2419 N.am           1 <1>                0.0000
     14 C14          2.5791  -0.2958  -1.3139 C.3            1 <1>                0.0000
     15 C15          3.1132  -1.5657  -0.7031 C.2            1 <1>                0.0000
     16 O16          2.3503  -2.3870  -0.2540 O.2            1 <1>                0.0000
     17 C17          3.0176  -0.2100  -2.7773 C.3            1 <1>                0.0000
     18 N18          4.4785  -0.3462  -2.8627 N.4            1 <1>                0.0000
     19 H19          4.9136   0.3395  -2.2638 H              1 <1>                0.0000
     20 H20          4.7461  -1.2712  -2.5610 H              1 <1>                0.0000
     21 C21          4.9270  -0.1406  -4.2408 C.3            1 <1>                0.0000
     22 C22          4.5836  -1.3472  -5.1107 C.3            1 <1>                0.0000
     23 C23          5.0390  -2.6279  -4.4082 C.3            1 <1>                0.0000
     24 C24          3.0687  -1.4017  -5.3399 C.3            1 <1>                0.0000
     25 S25          2.2481  -1.5579  -3.7242 S.3            1 <1>                0.0000
     26 C26          4.2527   1.0840  -4.8037 C.2            1 <1>                0.0000
     27 O27          3.8391   1.9514  -4.0533 O.co2          1 <1>                0.0000
     28 O28          4.1208   1.2073  -6.0094 O.co2          1 <1>                0.0000
     29 C29         -1.5201  -1.2750  -0.2332 C.ar           1 <1>                0.0000
     30 C30         -1.5063  -2.1578   0.8308 C.ar           1 <1>                0.0000
     31 C31         -1.9739  -3.4472   0.6661 C.ar           1 <1>                0.0000
     32 C32         -2.4582  -3.8558  -0.5681 C.ar           1 <1>                0.0000
     33 O33         -2.9192  -5.1236  -0.7325 O.3            1 <1>                0.0000
     34 C34         -2.4714  -2.9680  -1.6340 C.ar           1 <1>                0.0000
     35 C35         -2.0070  -1.6782  -1.4628 C.ar           1 <1>                0.0000
     36 C36         -4.1838   2.4007   2.6848 C.2            1 <1>                0.0000
     37 O37         -4.9802   2.3882   1.7699 O.2            1 <1>                0.0000
     38 C38         -4.4986   3.1237   3.9561 C.2            1 <1>                0.0000
     39 O39         -5.6228   3.5262   4.1727 O.2            1 <1>                0.0000
     40 H40         -5.0165   2.2438   6.7984 H              1 <1>                0.0000
     41 H41         -3.2990   2.1450   7.2551 H              1 <1>                0.0000
     42 H42         -4.3893   3.2503   8.1257 H              1 <1>                0.0000
     43 H43         -4.6849   4.5870   6.0582 H              1 <1>                0.0000
     44 H44         -2.9674   4.4882   6.5149 H              1 <1>                0.0000
     45 H45         -1.6750   3.7589   3.9522 H              1 <1>                0.0000
     46 H46         -1.5767   2.8188   5.4573 H              1 <1>                0.0000
     47 H47         -1.0882   1.4873   3.3714 H              1 <1>                0.0000
     48 H48         -2.4163   0.8372   4.3574 H              1 <1>                0.0000
     49 H49         -0.8398   0.5715   2.0194 H              1 <1>                0.0000
     50 H50         -1.4123   0.7690  -0.8373 H              1 <1>                0.0000
     51 H51          0.5933  -0.6067  -1.9981 H              1 <1>                0.0000
     52 H52          2.9691   0.5625  -0.7669 H              1 <1>                0.0000
     53 H53          4.1782  -1.7413  -0.6671 H              1 <1>                0.0000
     54 H54          2.7130   0.7499  -3.1943 H              1 <1>                0.0000
     55 H55          6.0064   0.0106  -4.2476 H              1 <1>                0.0000
     56 H56          5.0926  -1.2592  -6.0706 H              1 <1>                0.0000
     57 H57          4.5310  -2.7158  -3.4479 H              1 <1>                0.0000
     58 H58          4.7940  -3.4896  -5.0291 H              1 <1>                0.0000
     59 H59          6.1164  -2.5905  -4.2473 H              1 <1>                0.0000
     60 H60          2.7388  -0.4868  -5.8321 H              1 <1>                0.0000
     61 H61          2.8223  -2.2627  -5.9613 H              1 <1>                0.0000
     62 H62         -1.1292  -1.8392   1.7914 H              1 <1>                0.0000
     63 H63         -1.9623  -4.1366   1.4974 H              1 <1>                0.0000
     64 H64         -3.8633  -5.2256  -0.5498 H              1 <1>                0.0000
     65 H65         -2.8475  -3.2838  -2.5958 H              1 <1>                0.0000
     66 H66         -2.0174  -0.9865  -2.2922 H              1 <1>                0.0000
@<TRIPOS>BOND
    1    1    2 1     
    2    1   40 1     
    3    1   41 1     
    4    1   42 1     
    5    2    3 1     
    6    2   43 1     
    7    2   44 1     
    8    3   38 am    
    9    3    4 1     
   10    4    5 1     
   11    4   45 1     
   12    4   46 1     
   13    5    6 1     
   14    5   47 1     
   15    5   48 1     
   16    6    7 am    
   17    6   36 am    
   18    7    8 2     
   19    7    9 am    
   20    9   10 1     
   21    9   49 1     
   22   10   11 1     
   23   10   29 1     
   24   10   50 1     
   25   11   12 2     
   26   11   13 am    
   27   13   14 1     
   28   13   51 1     
   29   14   15 1     
   30   14   17 1     
   31   14   52 1     
   32   15   16 2     
   33   15   53 1     
   34   17   25 1     
   35   17   18 1     
   36   17   54 1     
   37   18   19 1     
   38   18   20 1     
   39   18   21 1     
   40   21   22 1     
   41   21   26 1     
   42   21   55 1     
   43   22   23 1     
   44   22   24 1     
   45   22   56 1     
   46   23   57 1     
   47   23   58 1     
   48   23   59 1     
   49   24   25 1     
   50   24   60 1     
   51   24   61 1     
   52   26   27 ar    
   53   26   28 ar    
   54   29   35 ar    
   55   29   30 ar    
   56   30   31 ar    
   57   30   62 1     
   58   31   32 ar    
   59   31   63 1     
   60   32   33 1     
   61   32   34 ar    
   62   33   64 1     
   63   34   35 ar    
   64   34   65 1     
   65   35   66 1     
   66   36   37 2     
   67   36   38 1     
   68   38   39 2     
@<TRIPOS>SUBSTRUCTURE
      1 ****           1
@<TRIPOS>SET
DONOR_HYDROGENS      STATIC     ATOMS    <user>   **** ""
5 49 51 19 20 64
ATOM$RED        STATIC     ATOMS    COLORGROUP SYSTEM
5 49 51 19 20 64
