#       Name:                5CC
#       Creating user name   gbret
#       Creation time:       Fri Sep  9 01:12:32 2016


#       File generated by GOLD software.
#

@<TRIPOS>MOLECULE
5CC
    56    59     1
SMALL
NO_CHARGES


@<TRIPOS>ATOM
      1 C1           3.4590   0.7786  -0.1396 C.3            1 <1>                0.0000
      2 C2           2.4398   1.6758  -0.8448 C.3            1 <1>                0.0000
      3 C3           1.1003   0.9861  -0.8760 C.2            1 <1>                0.0000
      4 C4           0.7378   0.2578  -1.9609 C.2            1 <1>                0.0000
      5 C5          -0.5119  -0.5336  -1.9366 C.ar           1 <1>                0.0000
      6 C6          -0.6445  -1.6053  -1.0519 C.ar           1 <1>                0.0000
      7 C7          -1.8106  -2.3399  -1.0319 C.ar           1 <1>                0.0000
      8 C8          -2.8528  -2.0152  -1.8904 C.ar           1 <1>                0.0000
      9 O9          -4.0006  -2.7417  -1.8678 O.3            1 <1>                0.0000
     10 C10         -2.7249  -0.9495  -2.7717 C.ar           1 <1>                0.0000
     11 C11         -1.5638  -0.2071  -2.7943 C.ar           1 <1>                0.0000
     12 C12          1.5920   0.2546  -3.1687 C.ar           1 <1>                0.0000
     13 C13          1.7319   1.4163  -3.9299 C.ar           1 <1>                0.0000
     14 C14          2.5291   1.4095  -5.0544 C.ar           1 <1>                0.0000
     15 C15          3.1926   0.2488  -5.4304 C.ar           1 <1>                0.0000
     16 O16          3.9775   0.2460  -6.5393 O.3            1 <1>                0.0000
     17 C17          3.0563  -0.9088  -4.6754 C.ar           1 <1>                0.0000
     18 C18          2.2648  -0.9086  -3.5469 C.ar           1 <1>                0.0000
     19 C19          0.1862   1.1029   0.2701 C.ar           1 <1>                0.0000
     20 C20         -1.0442   1.7537   0.1241 C.ar           1 <1>                0.0000
     21 C21         -1.8987   1.8613   1.2011 C.ar           1 <1>                0.0000
     22 C22         -1.5451   1.3283   2.4272 C.ar           1 <1>                0.0000
     23 C23         -0.3252   0.6794   2.5842 C.ar           1 <1>                0.0000
     24 N24          0.0258   0.1431   3.8259 N.pl3          1 <1>                0.0000
     25 C25         -0.9688  -0.2918   4.7054 C.ar           1 <1>                0.0000
     26 C26         -2.1789  -0.7616   4.2106 C.ar           1 <1>                0.0000
     27 C27         -3.1597  -1.1911   5.0828 C.ar           1 <1>                0.0000
     28 C28         -2.9383  -1.1541   6.4473 C.ar           1 <1>                0.0000
     29 C29         -1.7348  -0.6871   6.9434 C.ar           1 <1>                0.0000
     30 C30         -0.7477  -0.2609   6.0767 C.ar           1 <1>                0.0000
     31 C31          0.5400   0.5595   1.5081 C.ar           1 <1>                0.0000
     32 H32          4.4500   1.2266  -0.2136 H              1 <1>                0.0000
     33 H33          3.1854   0.6733   0.9102 H              1 <1>                0.0000
     34 H34          3.4678  -0.2031  -0.6130 H              1 <1>                0.0000
     35 H35          2.3506   2.6185  -0.3049 H              1 <1>                0.0000
     36 H36          2.7718   1.8710  -1.8645 H              1 <1>                0.0000
     37 H37          0.1657  -1.8586  -0.3842 H              1 <1>                0.0000
     38 H38         -1.9138  -3.1694  -0.3480 H              1 <1>                0.0000
     39 H39         -4.6659  -2.4070  -1.2509 H              1 <1>                0.0000
     40 H40         -3.5377  -0.6998  -3.4376 H              1 <1>                0.0000
     41 H41         -1.4650   0.6215  -3.4799 H              1 <1>                0.0000
     42 H42          1.2159   2.3192  -3.6384 H              1 <1>                0.0000
     43 H43          2.6375   2.3078  -5.6440 H              1 <1>                0.0000
     44 H44          4.8993   0.4833  -6.3693 H              1 <1>                0.0000
     45 H45          3.5742  -1.8094  -4.9707 H              1 <1>                0.0000
     46 H46          2.1593  -1.8093  -2.9603 H              1 <1>                0.0000
     47 H47         -1.3242   2.1717  -0.8316 H              1 <1>                0.0000
     48 H48         -2.8477   2.3641   1.0867 H              1 <1>                0.0000
     49 H49         -2.2192   1.4166   3.2664 H              1 <1>                0.0000
     50 H50          0.9601   0.0727   4.0772 H              1 <1>                0.0000
     51 H51         -2.3526  -0.7905   3.1450 H              1 <1>                0.0000
     52 H52         -4.1008  -1.5561   4.6988 H              1 <1>                0.0000
     53 H53         -3.7071  -1.4903   7.1272 H              1 <1>                0.0000
     54 H54         -1.5652  -0.6595   8.0096 H              1 <1>                0.0000
     55 H55          0.1919   0.1037   6.4647 H              1 <1>                0.0000
     56 H56          1.4878   0.0557   1.6280 H              1 <1>                0.0000
@<TRIPOS>BOND
    1    1    2 1     
    2    1   32 1     
    3    1   33 1     
    4    1   34 1     
    5    2    3 1     
    6    2   35 1     
    7    2   36 1     
    8    3    4 2     
    9    3   19 1     
   10    4    5 1     
   11    4   12 1     
   12    5   11 ar    
   13    5    6 ar    
   14    6    7 ar    
   15    6   37 1     
   16    7    8 ar    
   17    7   38 1     
   18    8    9 1     
   19    8   10 ar    
   20    9   39 1     
   21   10   11 ar    
   22   10   40 1     
   23   11   41 1     
   24   12   18 ar    
   25   12   13 ar    
   26   13   14 ar    
   27   13   42 1     
   28   14   15 ar    
   29   14   43 1     
   30   15   16 1     
   31   15   17 ar    
   32   16   44 1     
   33   17   18 ar    
   34   17   45 1     
   35   18   46 1     
   36   19   31 ar    
   37   19   20 ar    
   38   20   21 ar    
   39   20   47 1     
   40   21   22 ar    
   41   21   48 1     
   42   22   23 ar    
   43   22   49 1     
   44   23   24 1     
   45   23   31 ar    
   46   24   25 1     
   47   24   50 1     
   48   25   30 ar    
   49   25   26 ar    
   50   26   27 ar    
   51   26   51 1     
   52   27   28 ar    
   53   27   52 1     
   54   28   29 ar    
   55   28   53 1     
   56   29   30 ar    
   57   29   54 1     
   58   30   55 1     
   59   31   56 1     
@<TRIPOS>SUBSTRUCTURE
      1 ****           1
@<TRIPOS>SET
DONOR_HYDROGENS      STATIC     ATOMS    <user>   **** ""
3 39 44 50
ATOM$RED        STATIC     ATOMS    COLORGROUP SYSTEM
3 39 44 50
