#       Name:                5DQ
#       Creating user name   gbret
#       Creation time:       Fri Sep  9 01:15:28 2016


#       File generated by GOLD software.
#

@<TRIPOS>MOLECULE
5DQ
    45    48     1
SMALL
NO_CHARGES


@<TRIPOS>ATOM
      1 F1           0.2161  -4.9948  -5.9218 F              1 <1>                0.0000
      2 C2           0.3244  -3.6004  -5.9577 C.3            1 <1>                0.0000
      3 F3           1.6611  -3.2416  -6.1620 F              1 <1>                0.0000
      4 F4          -0.4582  -3.0987  -7.0032 F              1 <1>                0.0000
      5 C5          -0.1558  -3.0255  -4.6501 C.ar           1 <1>                0.0000
      6 C6          -1.4895  -2.6930  -4.4923 C.ar           1 <1>                0.0000
      7 C7          -1.9356  -2.1666  -3.2976 C.ar           1 <1>                0.0000
      8 C8          -1.0384  -1.9699  -2.2470 C.ar           1 <1>                0.0000
      9 C9           0.3055  -2.3073  -2.4127 C.ar           1 <1>                0.0000
     10 C10          0.7378  -2.8378  -3.6107 C.ar           1 <1>                0.0000
     11 C11         -1.5096  -1.4056  -0.9638 C.2            1 <1>                0.0000
     12 N12         -2.7470  -1.0603  -0.7005 N.2            1 <1>                0.0000
     13 C13         -2.8312  -0.5829   0.5582 C.ar           1 <1>                0.0000
     14 N14         -3.8424  -0.1123   1.2872 N.ar           1 <1>                0.0000
     15 C15         -3.6649   0.3040   2.5219 C.ar           1 <1>                0.0000
     16 C16         -2.4161   0.2730   3.1228 C.ar           1 <1>                0.0000
     17 C17         -1.3295  -0.2064   2.4112 C.ar           1 <1>                0.0000
     18 C18         -1.5376  -0.6418   1.1090 C.ar           1 <1>                0.0000
     19 N19         -0.7218  -1.1708   0.1292 N.pl3          1 <1>                0.0000
     20 H20          0.2303  -1.3419   0.2016 H              1 <1>                0.0000
     21 S21          0.2745  -0.2626   3.1383 S.o2           1 <1>                0.0000
     22 O22          0.1425   0.2825   4.4440 O.2            1 <1>                0.0000
     23 O23          0.7832  -1.5655   2.8879 O.2            1 <1>                0.0000
     24 N24          1.2348   0.7856   2.2889 N.pl3          1 <1>                0.0000
     25 C25          0.9360   2.2198   2.2930 C.3            1 <1>                0.0000
     26 C26          1.8345   2.9439   3.3169 C.3            1 <1>                0.0000
     27 C27          3.0233   3.4693   2.4745 C.3            1 <1>                0.0000
     28 C28          2.3409   3.9023   1.1531 C.3            1 <1>                0.0000
     29 C29          1.2581   2.8292   0.9172 C.3            1 <1>                0.0000
     30 H30         -2.1827  -2.8454  -5.3063 H              1 <1>                0.0000
     31 H31         -2.9768  -1.9071  -3.1757 H              1 <1>                0.0000
     32 H32          1.0049  -2.1571  -1.6035 H              1 <1>                0.0000
     33 H33          1.7776  -3.0997  -3.7400 H              1 <1>                0.0000
     34 H34         -4.5104   0.6786   3.0798 H              1 <1>                0.0000
     35 H35         -2.2917   0.6204   4.1378 H              1 <1>                0.0000
     36 H36          1.9950   0.4500   1.7887 H              1 <1>                0.0000
     37 H37         -0.1141   2.3815   2.5364 H              1 <1>                0.0000
     38 H38          1.2970   3.7731   3.7769 H              1 <1>                0.0000
     39 H39          2.1848   2.2462   4.0776 H              1 <1>                0.0000
     40 H40          3.4958   4.3217   2.9626 H              1 <1>                0.0000
     41 H41          3.7485   2.6760   2.2928 H              1 <1>                0.0000
     42 H42          1.8852   4.8863   1.2637 H              1 <1>                0.0000
     43 H43          3.0609   3.9041   0.3347 H              1 <1>                0.0000
     44 H44          1.6366   2.0579   0.2465 H              1 <1>                0.0000
     45 H45          0.3644   3.2874   0.4934 H              1 <1>                0.0000
@<TRIPOS>BOND
    1    1    2 1     
    2    2    3 1     
    3    2    4 1     
    4    2    5 1     
    5    5   10 ar    
    6    5    6 ar    
    7    6    7 ar    
    8    6   30 1     
    9    7    8 ar    
   10    7   31 1     
   11    8    9 ar    
   12    8   11 1     
   13    9   10 ar    
   14    9   32 1     
   15   10   33 1     
   16   11   19 1     
   17   11   12 2     
   18   12   13 1     
   19   13   18 ar    
   20   13   14 ar    
   21   14   15 ar    
   22   15   16 ar    
   23   15   34 1     
   24   16   17 ar    
   25   16   35 1     
   26   17   18 ar    
   27   17   21 1     
   28   18   19 1     
   29   19   20 1     
   30   21   22 2     
   31   21   23 2     
   32   21   24 1     
   33   24   25 1     
   34   24   36 1     
   35   25   29 1     
   36   25   26 1     
   37   25   37 1     
   38   26   27 1     
   39   26   38 1     
   40   26   39 1     
   41   27   28 1     
   42   27   40 1     
   43   27   41 1     
   44   28   29 1     
   45   28   42 1     
   46   28   43 1     
   47   29   44 1     
   48   29   45 1     
@<TRIPOS>SUBSTRUCTURE
      1 ****           1
@<TRIPOS>SET
DONOR_HYDROGENS      STATIC     ATOMS    <user>   **** ""
2 20 36
ATOM$RED        STATIC     ATOMS    COLORGROUP SYSTEM
2 20 36
