#       Name:                5FT
#       Creating user name   gbret
#       Creation time:       Fri Sep  9 01:19:41 2016


#       File generated by GOLD software.
#

@<TRIPOS>MOLECULE
5FT
    58    62     1
SMALL
NO_CHARGES


@<TRIPOS>ATOM
      1 C1          -2.2385   4.6241   2.5332 C.3            1 <1>                0.0000
      2 C2          -2.1040   3.1259   2.4430 C.ar           1 <1>                0.0000
      3 C3          -1.9612   2.5207   1.2130 C.ar           1 <1>                0.0000
      4 C4          -1.8361   1.1312   1.1307 C.ar           1 <1>                0.0000
      5 C5          -1.8564   0.3616   2.2976 C.ar           1 <1>                0.0000
      6 C6          -1.9996   0.9757   3.5227 C.ar           1 <1>                0.0000
      7 C7          -2.1184   2.3576   3.5998 C.ar           1 <1>                0.0000
      8 O8          -2.2594   2.9586   4.8101 O.3            1 <1>                0.0000
      9 C9          -1.6836   0.4793  -0.1819 C.2            1 <1>                0.0000
     10 C10         -0.6197   0.6517  -0.9816 C.2            1 <1>                0.0000
     11 C11         -0.7317  -0.1546  -2.2932 C.3            1 <1>                0.0000
     12 C12         -0.6987  -1.6213  -1.7409 C.3            1 <1>                0.0000
     13 C13         -1.9178  -1.8188  -0.8245 C.3            1 <1>                0.0000
     14 C14         -2.7267  -0.4835  -0.7884 C.3            1 <1>                0.0000
     15 S15         -2.5619   0.0235  -2.5747 S.o            1 <1>                0.0000
     16 O16         -2.8889   1.3999  -2.7086 O.2            1 <1>                0.0000
     17 S17         -0.7733  -2.7967  -3.1206 S.o2           1 <1>                0.0000
     18 O18         -2.0386  -2.7308  -3.7639 O.2            1 <1>                0.0000
     19 O19          0.4329  -2.7618  -3.8711 O.2            1 <1>                0.0000
     20 O20         -0.7615  -4.1652  -2.4546 O.3            1 <1>                0.0000
     21 C21          0.4530  -4.5328  -1.9681 C.ar           1 <1>                0.0000
     22 C22          1.3549  -5.2009  -2.7835 C.ar           1 <1>                0.0000
     23 C23          2.5890  -5.5731  -2.2868 C.ar           1 <1>                0.0000
     24 C24          2.9256  -5.2806  -0.9780 C.ar           1 <1>                0.0000
     25 C25          2.0283  -4.6152  -0.1632 C.ar           1 <1>                0.0000
     26 C26          0.7953  -4.2354  -0.6570 C.ar           1 <1>                0.0000
     27 C27          0.5268   1.5140  -0.6454 C.ar           1 <1>                0.0000
     28 C28          0.7916   2.6567  -1.4060 C.ar           1 <1>                0.0000
     29 C29          1.8645   3.4602  -1.0874 C.ar           1 <1>                0.0000
     30 C30          2.6826   3.1364  -0.0124 C.ar           1 <1>                0.0000
     31 O31          3.7395   3.9318   0.2979 O.3            1 <1>                0.0000
     32 C32          2.4233   2.0026   0.7464 C.ar           1 <1>                0.0000
     33 C33          3.3144   1.6572   1.9116 C.3            1 <1>                0.0000
     34 C34          1.3495   1.1953   0.4385 C.ar           1 <1>                0.0000
     35 H35         -1.2495   5.0728   2.6257 H              1 <1>                0.0000
     36 H36         -2.7253   5.0001   1.6333 H              1 <1>                0.0000
     37 H37         -2.8381   4.8832   3.4059 H              1 <1>                0.0000
     38 H38         -1.9464   3.1193   0.3142 H              1 <1>                0.0000
     39 H39         -1.7604  -0.7125   2.2389 H              1 <1>                0.0000
     40 H40         -2.0155   0.3820   4.4247 H              1 <1>                0.0000
     41 H41         -1.4223   3.2043   5.2272 H              1 <1>                0.0000
     42 H42         -0.0611   0.1093  -3.1109 H              1 <1>                0.0000
     43 H43          0.2179  -1.7798  -1.1728 H              1 <1>                0.0000
     44 H44         -2.5457  -2.6195  -1.2153 H              1 <1>                0.0000
     45 H45         -1.5842  -2.0718   0.1819 H              1 <1>                0.0000
     46 H46         -3.7197  -0.5041  -0.3393 H              1 <1>                0.0000
     47 H47          1.0922  -5.4302  -3.8057 H              1 <1>                0.0000
     48 H48          3.2915  -6.0933  -2.9211 H              1 <1>                0.0000
     49 H49          3.8908  -5.5727  -0.5914 H              1 <1>                0.0000
     50 H50          2.2934  -4.3882   0.8589 H              1 <1>                0.0000
     51 H51          0.0948  -3.7157  -0.0202 H              1 <1>                0.0000
     52 H52          0.1563   2.9090  -2.2422 H              1 <1>                0.0000
     53 H53          2.0701   4.3430  -1.6746 H              1 <1>                0.0000
     54 H54          3.5296   4.6384   0.9238 H              1 <1>                0.0000
     55 H55          2.9290   2.1283   2.8158 H              1 <1>                0.0000
     56 H56          3.3344   0.5757   2.0457 H              1 <1>                0.0000
     57 H57          4.3243   2.0178   1.7161 H              1 <1>                0.0000
     58 H58          1.1487   0.3137   1.0291 H              1 <1>                0.0000
@<TRIPOS>BOND
    1    1    2 1     
    2    1   35 1     
    3    1   36 1     
    4    1   37 1     
    5    2    7 ar    
    6    2    3 ar    
    7    3    4 ar    
    8    3   38 1     
    9    4    5 ar    
   10    4    9 1     
   11    5    6 ar    
   12    5   39 1     
   13    6    7 ar    
   14    6   40 1     
   15    7    8 1     
   16    8   41 1     
   17    9   14 1     
   18    9   10 2     
   19   10   11 1     
   20   10   27 1     
   21   11   15 1     
   22   11   12 1     
   23   11   42 1     
   24   12   13 1     
   25   12   17 1     
   26   12   43 1     
   27   13   14 1     
   28   13   44 1     
   29   13   45 1     
   30   14   15 1     
   31   14   46 1     
   32   15   16 2     
   33   17   18 2     
   34   17   19 2     
   35   17   20 1     
   36   20   21 1     
   37   21   26 ar    
   38   21   22 ar    
   39   22   23 ar    
   40   22   47 1     
   41   23   24 ar    
   42   23   48 1     
   43   24   25 ar    
   44   24   49 1     
   45   25   26 ar    
   46   25   50 1     
   47   26   51 1     
   48   27   34 ar    
   49   27   28 ar    
   50   28   29 ar    
   51   28   52 1     
   52   29   30 ar    
   53   29   53 1     
   54   30   31 1     
   55   30   32 ar    
   56   31   54 1     
   57   32   33 1     
   58   32   34 ar    
   59   33   55 1     
   60   33   56 1     
   61   33   57 1     
   62   34   58 1     
@<TRIPOS>SUBSTRUCTURE
      1 ****           1
@<TRIPOS>SET
DONOR_HYDROGENS      STATIC     ATOMS    <user>   **** ""
2 41 54
ATOM$RED        STATIC     ATOMS    COLORGROUP SYSTEM
2 41 54
