#       Name:                5H1
#       Creating user name   gbret
#       Creation time:       Fri Sep  9 01:21:55 2016


#       File generated by GOLD software.
#

@<TRIPOS>MOLECULE
5H1
    17    18     1
SMALL
NO_CHARGES


@<TRIPOS>ATOM
      1 O1          -0.0997   3.2821  -0.3899 O.3            1 <1>                0.0000
      2 C2          -0.0812   1.9223  -0.3974 C.ar           1 <1>                0.0000
      3 C3          -0.0775   1.2355  -1.6089 C.ar           1 <1>                0.0000
      4 C4          -0.0585  -0.1409  -1.6346 C.ar           1 <1>                0.0000
      5 C5          -0.0427  -0.8586  -0.4431 C.ar           1 <1>                0.0000
      6 N6          -0.0233  -2.2058  -0.1496 N.pl3          1 <1>                0.0000
      7 H7          -0.0164  -2.9194  -0.8066 H              1 <1>                0.0000
      8 C8          -0.0147  -2.3857   1.2065 C.2            1 <1>                0.0000
      9 C9          -0.0278  -1.1950   1.8263 C.2            1 <1>                0.0000
     10 C10         -0.0464  -0.1680   0.7818 C.ar           1 <1>                0.0000
     11 C11         -0.0605   1.2286   0.7958 C.ar           1 <1>                0.0000
     12 H12          0.7783   3.6874  -0.3961 H              1 <1>                0.0000
     13 H13         -0.0901   1.7877  -2.5370 H              1 <1>                0.0000
     14 H14         -0.0562  -0.6634  -2.5798 H              1 <1>                0.0000
     15 H15          0.0005  -3.3438   1.7047 H              1 <1>                0.0000
     16 H16         -0.0255  -1.0262   2.8930 H              1 <1>                0.0000
     17 H17         -0.0579   1.7625   1.7346 H              1 <1>                0.0000
@<TRIPOS>BOND
    1    1    2 1     
    2    1   12 1     
    3    2   11 ar    
    4    2    3 ar    
    5    3    4 ar    
    6    3   13 1     
    7    4    5 ar    
    8    4   14 1     
    9    5   10 ar    
   10    5    6 1     
   11    6    7 1     
   12    6    8 1     
   13    8    9 2     
   14    8   15 1     
   15    9   10 1     
   16    9   16 1     
   17   10   11 ar    
   18   11   17 1     
@<TRIPOS>SUBSTRUCTURE
      1 ****           1
@<TRIPOS>SET
DONOR_HYDROGENS      STATIC     ATOMS    <user>   **** ""
2 12 7
ATOM$RED        STATIC     ATOMS    COLORGROUP SYSTEM
2 12 7
