#       Name:                5JP
#       Creating user name   gbret
#       Creation time:       Fri Sep  9 01:25:32 2016


#       File generated by GOLD software.
#

@<TRIPOS>MOLECULE
5JP
    17    16     1
SMALL
NO_CHARGES


@<TRIPOS>ATOM
      1 C1          -0.7225   1.8768  -0.6188 C.3            1 <1>                0.0000
      2 N2          -0.7026   0.4079  -0.6269 N.4            1 <1>                0.0000
      3 H3          -1.6492   0.0587  -0.6197 H              1 <1>                0.0000
      4 H4          -0.2303   0.0825  -1.4570 H              1 <1>                0.0000
      5 C5           0.0079  -0.0787   0.5632 C.3            1 <1>                0.0000
      6 C6          -0.0788  -1.6052   0.6203 C.3            1 <1>                0.0000
      7 O7           0.6216  -2.1640  -0.4929 O.3            1 <1>                0.0000
      8 C8           1.4537   0.3400   0.4913 C.2            1 <1>                0.0000
      9 O9           1.8551   0.9841  -0.4629 O.co2          1 <1>                0.0000
     10 O10          2.2221   0.0347   1.3873 O.co2          1 <1>                0.0000
     11 H11          0.3000   2.2541  -0.6265 H              1 <1>                0.0000
     12 H12         -1.2497   2.2379  -1.5019 H              1 <1>                0.0000
     13 H13         -1.2327   2.2283   0.2780 H              1 <1>                0.0000
     14 H14         -0.4490   0.3449   1.4576 H              1 <1>                0.0000
     15 H15          0.3707  -1.9602   1.5477 H              1 <1>                0.0000
     16 H16         -1.1242  -1.9114   0.5827 H              1 <1>                0.0000
     17 H17          0.6082  -3.1305  -0.5211 H              1 <1>                0.0000
@<TRIPOS>BOND
    1    1    2 1     
    2    1   11 1     
    3    1   12 1     
    4    1   13 1     
    5    2    3 1     
    6    2    4 1     
    7    2    5 1     
    8    5    6 1     
    9    5    8 1     
   10    5   14 1     
   11    6    7 1     
   12    6   15 1     
   13    6   16 1     
   14    7   17 1     
   15    8    9 ar    
   16    8   10 ar    
@<TRIPOS>SUBSTRUCTURE
      1 ****           1
@<TRIPOS>SET
DONOR_HYDROGENS      STATIC     ATOMS    <user>   **** ""
3 3 4 17
ATOM$RED        STATIC     ATOMS    COLORGROUP SYSTEM
3 3 4 17
