#       Name:                5M6
#       Creating user name   gbret
#       Creation time:       Fri Sep  9 01:29:26 2016


#       File generated by GOLD software.
#

@<TRIPOS>MOLECULE
5M6
    43    46     1
SMALL
NO_CHARGES


@<TRIPOS>ATOM
      1 C1           0.1075   4.9008  -2.7649 C.3            1 <1>                0.0000
      2 C2           0.1280   3.3939  -2.7732 C.2            1 <1>                0.0000
      3 N3           0.1338   2.6414  -3.8323 N.2            1 <1>                0.0000
      4 N4           0.1537   1.2976  -3.4481 N.pl3          1 <1>                0.0000
      5 C5           0.1655   0.1947  -4.3122 C.ar           1 <1>                0.0000
      6 C6           0.8676  -0.9523  -3.9664 C.ar           1 <1>                0.0000
      7 C7           0.8773  -2.0382  -4.8197 C.ar           1 <1>                0.0000
      8 C8           0.1885  -1.9836  -6.0187 C.ar           1 <1>                0.0000
      9 Cl9          0.2026  -3.3503  -7.0891 Cl             1 <1>                0.0000
     10 C10         -0.5120  -0.8417  -6.3657 C.ar           1 <1>                0.0000
     11 C11         -0.5296   0.2448  -5.5133 C.ar           1 <1>                0.0000
     12 C12          0.1600   1.2472  -2.0791 C.2            1 <1>                0.0000
     13 S13          0.1802   0.1337  -0.7177 S.3            1 <1>                0.0000
     14 C14          0.1667   1.4637   0.4284 C.2            1 <1>                0.0000
     15 C15          0.1484   2.6387  -0.2183 C.2            1 <1>                0.0000
     16 C16          0.1504   2.5530  -1.6166 C.2            1 <1>                0.0000
     17 C17          0.1743   1.3115   1.8864 C.2            1 <1>                0.0000
     18 O18          0.1634   2.2965   2.6011 O.2            1 <1>                0.0000
     19 N19          0.1936   0.0808   2.4354 N.am           1 <1>                0.0000
     20 C20          0.2012  -0.0713   3.8924 C.3            1 <1>                0.0000
     21 C21          0.2232  -1.5588   4.2498 C.3            1 <1>                0.0000
     22 C22          0.1598  -1.7437   5.7869 C.3            1 <1>                0.0000
     23 C23         -0.4449  -3.1706   5.8875 C.3            1 <1>                0.0000
     24 C24         -1.3936  -3.2110   4.6703 C.3            1 <1>                0.0000
     25 O25         -0.9531  -2.2104   3.7448 O.3            1 <1>                0.0000
     26 H26          1.1301   5.2781  -2.7726 H              1 <1>                0.0000
     27 H27         -0.4196   5.2619  -3.6480 H              1 <1>                0.0000
     28 H28         -0.4027   5.2523  -1.8681 H              1 <1>                0.0000
     29 H29          1.4059  -0.9951  -3.0311 H              1 <1>                0.0000
     30 H30          1.4232  -2.9305  -4.5512 H              1 <1>                0.0000
     31 H31         -1.0485  -0.8015  -7.3022 H              1 <1>                0.0000
     32 H32         -1.0766   1.1357  -5.7844 H              1 <1>                0.0000
     33 H33          0.1373   3.5848   0.3026 H              1 <1>                0.0000
     34 H34          0.2023  -0.7043   1.8657 H              1 <1>                0.0000
     35 H35          1.0861   0.4143   4.3038 H              1 <1>                0.0000
     36 H36         -0.6937   0.3896   4.3106 H              1 <1>                0.0000
     37 H37          1.1195  -2.0308   3.8472 H              1 <1>                0.0000
     38 H38          1.1557  -1.7070   6.2284 H              1 <1>                0.0000
     39 H39         -0.4982  -1.0050   6.2446 H              1 <1>                0.0000
     40 H40          0.3332  -3.9288   5.7983 H              1 <1>                0.0000
     41 H41         -1.0011  -3.2916   6.8171 H              1 <1>                0.0000
     42 H42         -1.3507  -4.1937   4.2005 H              1 <1>                0.0000
     43 H43         -2.4136  -2.9965   4.9891 H              1 <1>                0.0000
@<TRIPOS>BOND
    1    1    2 1     
    2    1   26 1     
    3    1   27 1     
    4    1   28 1     
    5    2   16 1     
    6    2    3 2     
    7    3    4 1     
    8    4    5 1     
    9    4   12 1     
   10    5   11 ar    
   11    5    6 ar    
   12    6    7 ar    
   13    6   29 1     
   14    7    8 ar    
   15    7   30 1     
   16    8    9 1     
   17    8   10 ar    
   18   10   11 ar    
   19   10   31 1     
   20   11   32 1     
   21   12   16 2     
   22   12   13 1     
   23   13   14 1     
   24   14   15 2     
   25   14   17 1     
   26   15   16 1     
   27   15   33 1     
   28   17   18 2     
   29   17   19 am    
   30   19   20 1     
   31   19   34 1     
   32   20   21 1     
   33   20   35 1     
   34   20   36 1     
   35   21   25 1     
   36   21   22 1     
   37   21   37 1     
   38   22   23 1     
   39   22   38 1     
   40   22   39 1     
   41   23   24 1     
   42   23   40 1     
   43   23   41 1     
   44   24   25 1     
   45   24   42 1     
   46   24   43 1     
@<TRIPOS>SUBSTRUCTURE
      1 ****           1
@<TRIPOS>SET
DONOR_HYDROGENS      STATIC     ATOMS    <user>   **** ""
1 34
ATOM$RED        STATIC     ATOMS    COLORGROUP SYSTEM
1 34
