#       Name:                5MB
#       Creating user name   gbret
#       Creation time:       Fri Sep  9 01:29:46 2016


#       File generated by GOLD software.
#

@<TRIPOS>MOLECULE
5MB
    18    19     1
SMALL
NO_CHARGES


@<TRIPOS>ATOM
      1 C1          -0.0411   2.8130  -0.3738 C.3            1 <1>                0.0000
      2 C2          -0.0206   1.3061  -0.3821 C.ar           1 <1>                0.0000
      3 C3          -0.0170   0.6236  -1.5904 C.ar           1 <1>                0.0000
      4 C4           0.0014  -0.7420  -1.6194 C.ar           1 <1>                0.0000
      5 C5           0.0173  -1.4635  -0.4227 C.ar           1 <1>                0.0000
      6 N6           0.0364  -2.7890  -0.1287 N.2            1 <1>                0.0000
      7 C7           0.0448  -2.9507   1.1623 C.2            1 <1>                0.0000
      8 N8           0.0318  -1.7412   1.7849 N.pl3          1 <1>                0.0000
      9 H9           0.0341  -1.5876   2.7426 H              1 <1>                0.0000
     10 C10          0.0141  -0.7730   0.8010 C.ar           1 <1>                0.0000
     11 C11          0.0001   0.6152   0.8106 C.ar           1 <1>                0.0000
     12 H12          0.9815   3.1903  -0.3815 H              1 <1>                0.0000
     13 H13         -0.5682   3.1741  -1.2570 H              1 <1>                0.0000
     14 H14         -0.5513   3.1645   0.5230 H              1 <1>                0.0000
     15 H15         -0.0292   1.1778  -2.5173 H              1 <1>                0.0000
     16 H16          0.0034  -1.2631  -2.5652 H              1 <1>                0.0000
     17 H17          0.0597  -3.9058   1.6660 H              1 <1>                0.0000
     18 H18          0.0030   1.1513   1.7481 H              1 <1>                0.0000
@<TRIPOS>BOND
    1    1    2 1     
    2    1   12 1     
    3    1   13 1     
    4    1   14 1     
    5    2   11 ar    
    6    2    3 ar    
    7    3    4 ar    
    8    3   15 1     
    9    4    5 ar    
   10    4   16 1     
   11    5   10 ar    
   12    5    6 1     
   13    6    7 2     
   14    7    8 1     
   15    7   17 1     
   16    8    9 1     
   17    8   10 1     
   18   10   11 ar    
   19   11   18 1     
@<TRIPOS>SUBSTRUCTURE
      1 ****           1
@<TRIPOS>SET
DONOR_HYDROGENS      STATIC     ATOMS    <user>   **** ""
1 9
ATOM$RED        STATIC     ATOMS    COLORGROUP SYSTEM
1 9
