#       Name:                5MR
#       Creating user name   gbret
#       Creation time:       Fri Sep  9 01:30:45 2016


#       File generated by GOLD software.
#

@<TRIPOS>MOLECULE
5MR
    68    72     1
SMALL
NO_CHARGES


@<TRIPOS>ATOM
      1 N1          -2.7495   5.3844  -1.5725 N.am           1 <1>                0.0000
      2 C2          -1.8225   4.4492  -1.2850 C.2            1 <1>                0.0000
      3 O3          -0.6516   4.7575  -1.2149 O.2            1 <1>                0.0000
      4 C4          -2.2408   3.0205  -1.0507 C.3            1 <1>                0.0000
      5 C5          -2.9347   2.4805  -2.3028 C.3            1 <1>                0.0000
      6 C6          -3.4276   1.0808  -2.0398 C.2            1 <1>                0.0000
      7 C7          -2.8757  -0.0576  -2.4885 C.2            1 <1>                0.0000
      8 N8          -3.5983  -1.1321  -2.0466 N.pl3          1 <1>                0.0000
      9 H9          -3.3933  -2.0599  -2.2419 H              1 <1>                0.0000
     10 C10         -4.6598  -0.7004  -1.2833 C.ar           1 <1>                0.0000
     11 C11         -5.6841  -1.3569  -0.6085 C.ar           1 <1>                0.0000
     12 C12         -6.6236  -0.6272   0.0860 C.ar           1 <1>                0.0000
     13 C13         -6.5597   0.7592   0.1201 C.ar           1 <1>                0.0000
     14 C14         -5.5624   1.4243  -0.5354 C.ar           1 <1>                0.0000
     15 C15         -4.5961   0.7042  -1.2407 C.ar           1 <1>                0.0000
     16 N16         -1.0580   2.2070  -0.7586 N.am           1 <1>                0.0000
     17 C17         -0.7867   1.8437   0.5106 C.2            1 <1>                0.0000
     18 O18         -1.4985   2.2245   1.4157 O.2            1 <1>                0.0000
     19 C19          0.4011   0.9643   0.8051 C.3            1 <1>                0.0000
     20 C20          0.6519   0.9343   2.3141 C.3            1 <1>                0.0000
     21 C21          1.9106   0.1561   2.5988 C.2            1 <1>                0.0000
     22 C22          3.1661   0.6523   2.6782 C.2            1 <1>                0.0000
     23 C23          3.9678  -0.4881   2.9632 C.2            1 <1>                0.0000
     24 N24          3.1451  -1.5056   3.0226 N.2            1 <1>                0.0000
     25 O25          2.0024  -1.1615   2.8284 O.3            1 <1>                0.0000
     26 C26          5.4395  -0.5186   3.1542 C.ar           1 <1>                0.0000
     27 C27          6.1807   0.6577   3.0644 C.ar           1 <1>                0.0000
     28 C28          7.5489   0.6236   3.2428 C.ar           1 <1>                0.0000
     29 C29          8.1843  -0.5755   3.5104 C.ar           1 <1>                0.0000
     30 C30          7.4533  -1.7463   3.6007 C.ar           1 <1>                0.0000
     31 C31          6.0839  -1.7227   3.4296 C.ar           1 <1>                0.0000
     32 C32          0.1212  -0.4548   0.3063 C.3            1 <1>                0.0000
     33 P33          0.7490  -0.6356  -1.3956 P.3            1 <1>                0.0000
     34 O34         -0.0275   0.3143  -2.3346 O.co2          1 <1>                0.0000
     35 O35          2.2520  -0.2793  -1.4307 O.co2          1 <1>                0.0000
     36 C36          0.5209  -2.3492  -1.9454 C.ar           1 <1>                0.0000
     37 C37          1.4634  -3.3087  -1.6263 C.ar           1 <1>                0.0000
     38 C38          1.2895  -4.6145  -2.0453 C.ar           1 <1>                0.0000
     39 C39          0.1729  -4.9609  -2.7829 C.ar           1 <1>                0.0000
     40 C40         -0.7701  -4.0015  -3.1012 C.ar           1 <1>                0.0000
     41 C41         -0.5984  -2.6966  -2.6786 C.ar           1 <1>                0.0000
     42 H42         -2.4798   6.3032  -1.7272 H              1 <1>                0.0000
     43 H43         -3.6859   5.1378  -1.6286 H              1 <1>                0.0000
     44 H44         -2.9291   2.9772  -0.2066 H              1 <1>                0.0000
     45 H45         -3.7793   3.1216  -2.5553 H              1 <1>                0.0000
     46 H46         -2.2281   2.4669  -3.1326 H              1 <1>                0.0000
     47 H47         -1.9924  -0.1166  -3.1073 H              1 <1>                0.0000
     48 H48         -5.7426  -2.4352  -0.6294 H              1 <1>                0.0000
     49 H49         -7.4181  -1.1388   0.6088 H              1 <1>                0.0000
     50 H50         -7.3045   1.3164   0.6690 H              1 <1>                0.0000
     51 H51         -5.5191   2.5030  -0.5044 H              1 <1>                0.0000
     52 H52         -0.4702   1.9298  -1.4787 H              1 <1>                0.0000
     53 H53          1.2811   1.3606   0.2984 H              1 <1>                0.0000
     54 H54          0.7632   1.9535   2.6842 H              1 <1>                0.0000
     55 H55         -0.1913   0.4567   2.8131 H              1 <1>                0.0000
     56 H56          3.4860   1.6763   2.5537 H              1 <1>                0.0000
     57 H57          5.6856   1.5945   2.8552 H              1 <1>                0.0000
     58 H58          8.1244   1.5348   3.1730 H              1 <1>                0.0000
     59 H59          9.2552  -0.5977   3.6490 H              1 <1>                0.0000
     60 H60          7.9544  -2.6798   3.8098 H              1 <1>                0.0000
     61 H61          5.5141  -2.6374   3.5003 H              1 <1>                0.0000
     62 H62          0.6207  -1.1734   0.9561 H              1 <1>                0.0000
     63 H63         -0.9530  -0.6390   0.3188 H              1 <1>                0.0000
     64 H64          2.3358  -3.0381  -1.0501 H              1 <1>                0.0000
     65 H65          2.0262  -5.3641  -1.7967 H              1 <1>                0.0000
     66 H66          0.0374  -5.9809  -3.1109 H              1 <1>                0.0000
     67 H67         -1.6423  -4.2720  -3.6778 H              1 <1>                0.0000
     68 H68         -1.3351  -1.9470  -2.9272 H              1 <1>                0.0000
@<TRIPOS>BOND
    1    1    2 am    
    2    1   42 1     
    3    1   43 1     
    4    2    3 2     
    5    2    4 1     
    6    4    5 1     
    7    4   16 1     
    8    4   44 1     
    9    5    6 1     
   10    5   45 1     
   11    5   46 1     
   12    6   15 1     
   13    6    7 2     
   14    7    8 1     
   15    7   47 1     
   16    8    9 1     
   17    8   10 1     
   18   10   15 ar    
   19   10   11 ar    
   20   11   12 ar    
   21   11   48 1     
   22   12   13 ar    
   23   12   49 1     
   24   13   14 ar    
   25   13   50 1     
   26   14   15 ar    
   27   14   51 1     
   28   16   17 am    
   29   16   52 1     
   30   17   18 2     
   31   17   19 1     
   32   19   20 1     
   33   19   32 1     
   34   19   53 1     
   35   20   21 1     
   36   20   54 1     
   37   20   55 1     
   38   21   25 1     
   39   21   22 2     
   40   22   23 1     
   41   22   56 1     
   42   23   24 2     
   43   23   26 1     
   44   24   25 1     
   45   26   31 ar    
   46   26   27 ar    
   47   27   28 ar    
   48   27   57 1     
   49   28   29 ar    
   50   28   58 1     
   51   29   30 ar    
   52   29   59 1     
   53   30   31 ar    
   54   30   60 1     
   55   31   61 1     
   56   32   33 1     
   57   32   62 1     
   58   32   63 1     
   59   33   34 ar    
   60   33   35 ar    
   61   33   36 1     
   62   36   41 ar    
   63   36   37 ar    
   64   37   38 ar    
   65   37   64 1     
   66   38   39 ar    
   67   38   65 1     
   68   39   40 ar    
   69   39   66 1     
   70   40   41 ar    
   71   40   67 1     
   72   41   68 1     
@<TRIPOS>SUBSTRUCTURE
      1 ****           1
@<TRIPOS>SET
DONOR_HYDROGENS      STATIC     ATOMS    <user>   **** ""
4 42 43 9 52
ATOM$RED        STATIC     ATOMS    COLORGROUP SYSTEM
4 42 43 9 52
