#       Name:                5NK
#       Creating user name   gbret
#       Creation time:       Fri Sep  9 01:32:27 2016


#       File generated by GOLD software.
#

@<TRIPOS>MOLECULE
5NK
    60    63     1
SMALL
NO_CHARGES


@<TRIPOS>ATOM
      1 C1          -2.2618   1.5792  -3.8027 C.3            1 <1>                0.0000
      2 C2          -2.5240   2.4139  -2.5756 C.ar           1 <1>                0.0000
      3 C3          -2.7649   3.7686  -2.7110 C.ar           1 <1>                0.0000
      4 C4          -3.0055   4.5292  -1.5784 C.ar           1 <1>                0.0000
      5 C5          -2.9949   3.8938  -0.3406 C.ar           1 <1>                0.0000
      6 O6          -3.2262   4.5988   0.7981 O.3            1 <1>                0.0000
      7 C7          -2.7454   2.5305  -0.2855 C.ar           1 <1>                0.0000
      8 C8          -2.7307   1.8284   1.0480 C.3            1 <1>                0.0000
      9 N9          -1.3521   1.7328   1.5343 N.pl3          1 <1>                0.0000
     10 C10         -0.4446   0.7651   1.2111 C.2            1 <1>                0.0000
     11 N11         -0.6847  -0.2938   0.3610 N.pl3          1 <1>                0.0000
     12 C12          0.4031  -1.2081   0.0045 C.3            1 <1>                0.0000
     13 C13          0.5287  -2.2959   1.0747 C.3            1 <1>                0.0000
     14 C14          1.6254  -3.2821   0.6665 C.3            1 <1>                0.0000
     15 N15          1.2875  -3.8827  -0.6303 N.3            1 <1>                0.0000
     16 C16          2.2469  -4.9358  -0.9888 C.3            1 <1>                0.0000
     17 C17          2.0167  -5.3630  -2.4398 C.3            1 <1>                0.0000
     18 N18          2.9761  -6.4160  -2.7983 N.4            1 <1>                0.0000
     19 H19          2.8243  -6.6978  -3.7552 H              1 <1>                0.0000
     20 H20          3.9161  -6.0634  -2.6966 H              1 <1>                0.0000
     21 H21          2.8471  -7.2101  -2.1893 H              1 <1>                0.0000
     22 C22          1.2080  -2.8625  -1.6834 C.3            1 <1>                0.0000
     23 C23          0.0988  -1.8637  -1.3453 C.3            1 <1>                0.0000
     24 N24          0.6879   0.9927   1.8284 N.2            1 <1>                0.0000
     25 C25          0.5779   2.1172   2.5837 C.ar           1 <1>                0.0000
     26 C26          1.4613   2.7993   3.4240 C.ar           1 <1>                0.0000
     27 C27          2.8643   2.2861   3.6226 C.3            1 <1>                0.0000
     28 C28          1.0461   3.9422   4.0697 C.ar           1 <1>                0.0000
     29 C29         -0.2432   4.4219   3.8924 C.ar           1 <1>                0.0000
     30 C30         -1.1277   3.7599   3.0660 C.ar           1 <1>                0.0000
     31 C31         -0.7246   2.6107   2.4031 C.ar           1 <1>                0.0000
     32 N32         -2.5259   1.8415  -1.3879 N.ar           1 <1>                0.0000
     33 H33         -3.2057   1.1943  -4.1887 H              1 <1>                0.0000
     34 H34         -1.7814   2.1936  -4.5642 H              1 <1>                0.0000
     35 H35         -1.6088   0.7462  -3.5427 H              1 <1>                0.0000
     36 H36         -2.7651   4.2285  -3.6882 H              1 <1>                0.0000
     37 H37         -3.1964   5.5895  -1.6544 H              1 <1>                0.0000
     38 H38         -4.1634   4.7079   1.0096 H              1 <1>                0.0000
     39 H39         -3.3297   2.3931   1.7625 H              1 <1>                0.0000
     40 H40         -3.1468   0.8272   0.9361 H              1 <1>                0.0000
     41 H41         -1.5737  -0.4334  -0.0009 H              1 <1>                0.0000
     42 H42          1.3385  -0.6525  -0.0630 H              1 <1>                0.0000
     43 H43          0.7876  -1.8387   2.0297 H              1 <1>                0.0000
     44 H44         -0.4196  -2.8249   1.1690 H              1 <1>                0.0000
     45 H45          2.5761  -2.7551   0.5858 H              1 <1>                0.0000
     46 H46          1.7076  -4.0660   1.4194 H              1 <1>                0.0000
     47 H47          3.2623  -4.5549  -0.8789 H              1 <1>                0.0000
     48 H48          2.1075  -5.7936  -0.3309 H              1 <1>                0.0000
     49 H49          1.0013  -5.7438  -2.5496 H              1 <1>                0.0000
     50 H50          2.1561  -4.5051  -3.0976 H              1 <1>                0.0000
     51 H51          2.1606  -2.3374  -1.7530 H              1 <1>                0.0000
     52 H52          0.9870  -3.3415  -2.6372 H              1 <1>                0.0000
     53 H53         -0.8563  -2.3859  -1.2891 H              1 <1>                0.0000
     54 H54          0.0505  -1.0978  -2.1193 H              1 <1>                0.0000
     55 H55          3.5223   2.7285   2.8747 H              1 <1>                0.0000
     56 H56          3.2127   2.5573   4.6191 H              1 <1>                0.0000
     57 H57          2.8726   1.2012   3.5176 H              1 <1>                0.0000
     58 H58          1.7293   4.4690   4.7195 H              1 <1>                0.0000
     59 H59         -0.5569   5.3194   4.4048 H              1 <1>                0.0000
     60 H60         -2.1303   4.1384   2.9323 H              1 <1>                0.0000
@<TRIPOS>BOND
    1    1    2 1     
    2    1   33 1     
    3    1   34 1     
    4    1   35 1     
    5    2   32 ar    
    6    2    3 ar    
    7    3    4 ar    
    8    3   36 1     
    9    4    5 ar    
   10    4   37 1     
   11    5    6 1     
   12    5    7 ar    
   13    6   38 1     
   14    7    8 1     
   15    7   32 ar    
   16    8    9 1     
   17    8   39 1     
   18    8   40 1     
   19    9   31 1     
   20    9   10 1     
   21   10   11 1     
   22   10   24 2     
   23   11   12 1     
   24   11   41 1     
   25   12   23 1     
   26   12   13 1     
   27   12   42 1     
   28   13   14 1     
   29   13   43 1     
   30   13   44 1     
   31   14   15 1     
   32   14   45 1     
   33   14   46 1     
   34   15   16 1     
   35   15   22 1     
   36   16   17 1     
   37   16   47 1     
   38   16   48 1     
   39   17   18 1     
   40   17   49 1     
   41   17   50 1     
   42   18   19 1     
   43   18   20 1     
   44   18   21 1     
   45   22   23 1     
   46   22   51 1     
   47   22   52 1     
   48   23   53 1     
   49   23   54 1     
   50   24   25 1     
   51   25   31 ar    
   52   25   26 ar    
   53   26   27 1     
   54   26   28 ar    
   55   27   55 1     
   56   27   56 1     
   57   27   57 1     
   58   28   29 ar    
   59   28   58 1     
   60   29   30 ar    
   61   29   59 1     
   62   30   31 ar    
   63   30   60 1     
@<TRIPOS>SUBSTRUCTURE
      1 ****           1
@<TRIPOS>SET
DONOR_HYDROGENS      STATIC     ATOMS    <user>   **** ""
5 38 41 19 20 21
ATOM$RED        STATIC     ATOMS    COLORGROUP SYSTEM
5 38 41 19 20 21
