#       Name:                5SM
#       Creating user name   gbret
#       Creation time:       Fri Sep  9 01:41:51 2016


#       File generated by GOLD software.
#

@<TRIPOS>MOLECULE
5SM
    36    38     1
SMALL
NO_CHARGES


@<TRIPOS>ATOM
      1 C1           2.5678   2.2717  -3.7739 C.3            1 <1>                0.0000
      2 C2           2.5883   0.7648  -3.7822 C.2            1 <1>                0.0000
      3 N3           2.5942   0.0101  -4.8468 N.2            1 <1>                0.0000
      4 C4           2.6137  -1.2786  -4.4753 C.2            1 <1>                0.0000
      5 C5           2.6201  -1.3241  -3.1294 C.2            1 <1>                0.0000
      6 N6           2.6094  -0.0281  -2.6892 N.pl3          1 <1>                0.0000
      7 C7           2.6117   0.4159  -1.2931 C.3            1 <1>                0.0000
      8 C8           1.1959   0.6727  -0.8453 C.ar           1 <1>                0.0000
      9 C9           0.7015   0.0421   0.2827 C.ar           1 <1>                0.0000
     10 C10         -0.6197   0.3142   0.6577 C.ar           1 <1>                0.0000
     11 C11         -1.3498   1.2051  -0.1337 C.ar           1 <1>                0.0000
     12 N12         -0.7842   1.7532  -1.1903 N.ar           1 <1>                0.0000
     13 N13          0.4285   1.5036  -1.5259 N.ar           1 <1>                0.0000
     14 C14         -1.2240  -0.3218   1.8538 C.ar           1 <1>                0.0000
     15 C15         -0.4742  -1.2032   2.6309 C.ar           1 <1>                0.0000
     16 C16         -1.0400  -1.7920   3.7426 C.ar           1 <1>                0.0000
     17 C17         -2.3521  -1.5087   4.0871 C.ar           1 <1>                0.0000
     18 F18         -2.9023  -2.0876   5.1768 F              1 <1>                0.0000
     19 C19         -3.1010  -0.6333   3.3177 C.ar           1 <1>                0.0000
     20 C20         -2.5412  -0.0354   2.2073 C.ar           1 <1>                0.0000
     21 C21         -4.5273  -0.3291   3.6973 C.3            1 <1>                0.0000
     22 F22         -4.6725  -0.4314   5.0850 F              1 <1>                0.0000
     23 F23         -4.8519   0.9690   3.2890 F              1 <1>                0.0000
     24 H24          3.5904   2.6490  -3.7816 H              1 <1>                0.0000
     25 H25          2.0407   2.6328  -4.6570 H              1 <1>                0.0000
     26 H26          2.0576   2.6232  -2.8771 H              1 <1>                0.0000
     27 H27          2.6227  -2.1304  -5.1392 H              1 <1>                0.0000
     28 H28          2.6351  -2.2125  -2.5154 H              1 <1>                0.0000
     29 H29          3.0563  -0.3574  -0.6667 H              1 <1>                0.0000
     30 H30          3.1929   1.3338  -1.2047 H              1 <1>                0.0000
     31 H31          1.3147  -0.6382   0.8551 H              1 <1>                0.0000
     32 H32         -2.3725   1.4430   0.1192 H              1 <1>                0.0000
     33 H33          0.5482  -1.4251   2.3627 H              1 <1>                0.0000
     34 H34         -0.4597  -2.4751   4.3452 H              1 <1>                0.0000
     35 H35         -3.1258   0.6470   1.6080 H              1 <1>                0.0000
     36 H36         -5.1930  -1.0408   3.2089 H              1 <1>                0.0000
@<TRIPOS>BOND
    1    1    2 1     
    2    1   24 1     
    3    1   25 1     
    4    1   26 1     
    5    2    6 1     
    6    2    3 2     
    7    3    4 1     
    8    4    5 2     
    9    4   27 1     
   10    5    6 1     
   11    5   28 1     
   12    6    7 1     
   13    7    8 1     
   14    7   29 1     
   15    7   30 1     
   16    8   13 ar    
   17    8    9 ar    
   18    9   10 ar    
   19    9   31 1     
   20   10   11 ar    
   21   10   14 1     
   22   11   12 ar    
   23   11   32 1     
   24   12   13 ar    
   25   14   20 ar    
   26   14   15 ar    
   27   15   16 ar    
   28   15   33 1     
   29   16   17 ar    
   30   16   34 1     
   31   17   18 1     
   32   17   19 ar    
   33   19   20 ar    
   34   19   21 1     
   35   20   35 1     
   36   21   22 1     
   37   21   23 1     
   38   21   36 1     
@<TRIPOS>SUBSTRUCTURE
      1 ****           1
