#       Name:                5WE
#       Creating user name   gbret
#       Creation time:       Fri Sep  9 01:47:54 2016


#       File generated by GOLD software.
#

@<TRIPOS>MOLECULE
5WE
    68    72     1
SMALL
NO_CHARGES


@<TRIPOS>ATOM
      1 C1          -0.3391   6.7145   2.9426 C.3            1 <1>                0.0000
      2 N2           0.2849   5.3888   3.0478 N.4            1 <1>                0.0000
      3 H3           0.8818   5.2336   2.2493 H              1 <1>                0.0000
      4 C4           1.0851   5.3205   4.2779 C.3            1 <1>                0.0000
      5 C5          -0.7602   4.3572   3.0857 C.3            1 <1>                0.0000
      6 C6          -0.1106   2.9721   3.0696 C.3            1 <1>                0.0000
      7 C7          -1.1991   1.8977   3.1091 C.3            1 <1>                0.0000
      8 C8          -0.5592   0.5334   3.0932 C.2            1 <1>                0.0000
      9 O9           0.6486   0.4305   3.0542 O.2            1 <1>                0.0000
     10 N10         -1.3291  -0.5724   3.1224 N.am           1 <1>                0.0000
     11 C11         -2.8027  -0.5926   3.1641 C.3            1 <1>                0.0000
     12 C12         -3.1628  -1.9608   3.7950 C.3            1 <1>                0.0000
     13 C13         -2.0734  -2.8817   3.1847 C.3            1 <1>                0.0000
     14 C14         -0.8388  -1.9584   3.1115 C.3            1 <1>                0.0000
     15 C15         -0.0718  -2.2281   1.8426 C.2            1 <1>                0.0000
     16 N16         -0.4466  -1.8618   0.6446 N.2            1 <1>                0.0000
     17 C17          0.4656  -2.2601  -0.2578 C.2            1 <1>                0.0000
     18 C18          0.4110  -2.0403  -1.7176 C.ar           1 <1>                0.0000
     19 C19          0.7058  -3.0891  -2.5938 C.ar           1 <1>                0.0000
     20 C20          0.6550  -2.8865  -3.9431 C.ar           1 <1>                0.0000
     21 C21          0.3080  -1.6292  -4.4487 C.ar           1 <1>                0.0000
     22 C22          0.0132  -0.5801  -3.5718 C.ar           1 <1>                0.0000
     23 C23          0.0590  -0.7850  -2.2226 C.ar           1 <1>                0.0000
     24 C24          0.2535  -1.4098  -5.9061 C.2            1 <1>                0.0000
     25 O25          0.5102  -2.3219  -6.6683 O.2            1 <1>                0.0000
     26 N26         -0.0808  -0.1984  -6.3931 N.am           1 <1>                0.0000
     27 C27         -0.1321   0.0083  -7.7655 C.2            1 <1>                0.0000
     28 N28          0.1167  -0.8944  -8.6622 N.2            1 <1>                0.0000
     29 C29          0.0200  -0.5241  -9.9255 C.2            1 <1>                0.0000
     30 C30         -0.3270   0.7518 -10.1047 C.2            1 <1>                0.0000
     31 S31         -0.5398   1.4881  -8.5184 S.3            1 <1>                0.0000
     32 C32          1.4714  -2.9182   0.4424 C.2            1 <1>                0.0000
     33 C33          2.6779  -3.5529   0.0801 C.2            1 <1>                0.0000
     34 N34          3.0701  -3.6023  -1.2472 N.pl3          1 <1>                0.0000
     35 N35          3.4302  -4.0990   1.0175 N.2            1 <1>                0.0000
     36 C36          3.0698  -4.0620   2.3058 C.2            1 <1>                0.0000
     37 C37          1.9279  -3.4687   2.7021 C.2            1 <1>                0.0000
     38 N38          1.1057  -2.8773   1.7722 N.pl3          1 <1>                0.0000
     39 H39          0.4365   7.4799   2.9144 H              1 <1>                0.0000
     40 H40         -0.9328   6.7651   2.0299 H              1 <1>                0.0000
     41 H41         -0.9839   6.8821   3.8052 H              1 <1>                0.0000
     42 H42          0.4403   5.4881   5.1406 H              1 <1>                0.0000
     43 H43          1.5482   4.3369   4.3560 H              1 <1>                0.0000
     44 H44          1.8607   6.0859   4.2498 H              1 <1>                0.0000
     45 H45         -1.3504   4.4712   3.9950 H              1 <1>                0.0000
     46 H46         -1.4084   4.4646   2.2160 H              1 <1>                0.0000
     47 H47          0.4796   2.8582   2.1603 H              1 <1>                0.0000
     48 H48          0.5377   2.8647   3.9393 H              1 <1>                0.0000
     49 H49         -1.7893   2.0117   4.0184 H              1 <1>                0.0000
     50 H50         -1.8473   2.0051   2.2394 H              1 <1>                0.0000
     51 H51         -3.1758   0.2216   3.7853 H              1 <1>                0.0000
     52 H52         -3.2117  -0.5201   2.1563 H              1 <1>                0.0000
     53 H53         -3.0798  -1.9241   4.8812 H              1 <1>                0.0000
     54 H54         -4.1596  -2.2807   3.4915 H              1 <1>                0.0000
     55 H55         -1.8814  -3.7352   3.8349 H              1 <1>                0.0000
     56 H56         -2.3626  -3.2126   2.1873 H              1 <1>                0.0000
     57 H57         -0.1982  -2.1266   3.9772 H              1 <1>                0.0000
     58 H58          0.9740  -4.0597  -2.2033 H              1 <1>                0.0000
     59 H59          0.8830  -3.6966  -4.6199 H              1 <1>                0.0000
     60 H60         -0.2547   0.3907  -3.9618 H              1 <1>                0.0000
     61 H61         -0.1686   0.0250  -1.5454 H              1 <1>                0.0000
     62 H62         -0.2856   0.5291  -5.7851 H              1 <1>                0.0000
     63 H63          0.2072  -1.1991 -10.7475 H              1 <1>                0.0000
     64 H64         -0.4584   1.2458 -11.0561 H              1 <1>                0.0000
     65 H65          2.5142  -3.1993  -1.9324 H              1 <1>                0.0000
     66 H66          3.9005  -4.0398  -1.4915 H              1 <1>                0.0000
     67 H67          3.7102  -4.5194   3.0455 H              1 <1>                0.0000
     68 H68          1.6606  -3.4538   3.7484 H              1 <1>                0.0000
@<TRIPOS>BOND
    1    1    2 1     
    2    1   39 1     
    3    1   40 1     
    4    1   41 1     
    5    2    3 1     
    6    2    4 1     
    7    2    5 1     
    8    4   42 1     
    9    4   43 1     
   10    4   44 1     
   11    5    6 1     
   12    5   45 1     
   13    5   46 1     
   14    6    7 1     
   15    6   47 1     
   16    6   48 1     
   17    7    8 1     
   18    7   49 1     
   19    7   50 1     
   20    8    9 2     
   21    8   10 am    
   22   10   14 1     
   23   10   11 1     
   24   11   12 1     
   25   11   51 1     
   26   11   52 1     
   27   12   13 1     
   28   12   53 1     
   29   12   54 1     
   30   13   14 1     
   31   13   55 1     
   32   13   56 1     
   33   14   15 1     
   34   14   57 1     
   35   15   38 1     
   36   15   16 2     
   37   16   17 1     
   38   17   18 1     
   39   17   32 2     
   40   18   23 ar    
   41   18   19 ar    
   42   19   20 ar    
   43   19   58 1     
   44   20   21 ar    
   45   20   59 1     
   46   21   22 ar    
   47   21   24 1     
   48   22   23 ar    
   49   22   60 1     
   50   23   61 1     
   51   24   25 2     
   52   24   26 am    
   53   26   27 1     
   54   26   62 1     
   55   27   31 1     
   56   27   28 2     
   57   28   29 1     
   58   29   30 2     
   59   29   63 1     
   60   30   31 1     
   61   30   64 1     
   62   32   38 1     
   63   32   33 1     
   64   33   34 1     
   65   33   35 2     
   66   34   65 1     
   67   34   66 1     
   68   35   36 1     
   69   36   37 2     
   70   36   67 1     
   71   37   38 1     
   72   37   68 1     
@<TRIPOS>SUBSTRUCTURE
      1 ****           1
@<TRIPOS>SET
DONOR_HYDROGENS      STATIC     ATOMS    <user>   **** ""
4 3 62 65 66
ATOM$RED        STATIC     ATOMS    COLORGROUP SYSTEM
4 3 62 65 66
