#       Name:                5XO
#       Creating user name   gbret
#       Creation time:       Fri Sep  9 01:50:30 2016


#       File generated by GOLD software.
#

@<TRIPOS>MOLECULE
5XO
    41    43     1
SMALL
NO_CHARGES


@<TRIPOS>ATOM
      1 C1          -3.4052   3.7728  -2.3586 C.3            1 <1>                0.0000
      2 C2          -3.3847   2.2659  -2.3669 C.ar           1 <1>                0.0000
      3 C3          -3.3811   1.5812  -3.5680 C.ar           1 <1>                0.0000
      4 C4          -3.3623   0.1993  -3.5756 C.ar           1 <1>                0.0000
      5 C5          -3.3468  -0.4985  -2.3821 C.ar           1 <1>                0.0000
      6 C6          -3.3495   0.1860  -1.1814 C.ar           1 <1>                0.0000
      7 C7          -3.3330  -0.5745   0.1196 C.3            1 <1>                0.0000
      8 N8          -1.9466  -0.8031   0.5341 N.pl3          1 <1>                0.0000
      9 N9          -1.2315  -1.8231   0.2099 N.2            1 <1>                0.0000
     10 N10         -0.0637  -1.7038   0.7444 N.2            1 <1>                0.0000
     11 C11         -0.0570  -0.5523   1.4333 C.2            1 <1>                0.0000
     12 N12         -1.2505  -0.0116   1.2756 N.2            1 <1>                0.0000
     13 C13          1.0702   0.0050   2.2133 C.2            1 <1>                0.0000
     14 O14          1.0692   1.1541   2.9056 O.3            1 <1>                0.0000
     15 N15          2.1311   1.3574   3.4473 N.am           1 <1>                0.0000
     16 H16          2.3298   2.1336   3.9940 H              1 <1>                0.0000
     17 C17          3.0015   0.3607   3.1902 C.2            1 <1>                0.0000
     18 O18          4.1516   0.2673   3.5887 O.2            1 <1>                0.0000
     19 C19          2.3069  -0.5574   2.3690 C.2            1 <1>                0.0000
     20 C20          2.8152  -1.8533   1.7917 C.3            1 <1>                0.0000
     21 C21          3.5550  -1.5728   0.4822 C.3            1 <1>                0.0000
     22 N22          4.7559  -0.7735   0.7596 N.4            1 <1>                0.0000
     23 H23          5.3616  -1.2827   1.3857 H              1 <1>                0.0000
     24 H24          5.2438  -0.5885  -0.1040 H              1 <1>                0.0000
     25 H25          4.4871   0.0997   1.1878 H              1 <1>                0.0000
     26 C26          3.9564  -2.8771  -0.1573 C.2            1 <1>                0.0000
     27 O27          3.2021  -3.4302  -0.9393 O.co2          1 <1>                0.0000
     28 O28          5.0355  -3.3791   0.1074 O.co2          1 <1>                0.0000
     29 C29         -3.3639   1.5685  -1.1738 C.ar           1 <1>                0.0000
     30 H30         -2.3826   4.1501  -2.3663 H              1 <1>                0.0000
     31 H31         -3.9323   4.1339  -3.2417 H              1 <1>                0.0000
     32 H32         -3.9154   4.1243  -1.4618 H              1 <1>                0.0000
     33 H33         -3.3932   2.1263  -4.5003 H              1 <1>                0.0000
     34 H34         -3.3602  -0.3356  -4.5138 H              1 <1>                0.0000
     35 H35         -3.3328  -1.5784  -2.3880 H              1 <1>                0.0000
     36 H36         -3.8505   0.0037   0.8850 H              1 <1>                0.0000
     37 H37         -3.8352  -1.5328  -0.0134 H              1 <1>                0.0000
     38 H38          3.4966  -2.3242   2.5003 H              1 <1>                0.0000
     39 H39          1.9744  -2.5195   1.5985 H              1 <1>                0.0000
     40 H40          2.9007  -1.0228  -0.1942 H              1 <1>                0.0000
     41 H41         -3.3660   2.1034  -0.2355 H              1 <1>                0.0000
@<TRIPOS>BOND
    1    1    2 1     
    2    1   30 1     
    3    1   31 1     
    4    1   32 1     
    5    2   29 ar    
    6    2    3 ar    
    7    3    4 ar    
    8    3   33 1     
    9    4    5 ar    
   10    4   34 1     
   11    5    6 ar    
   12    5   35 1     
   13    6    7 1     
   14    6   29 ar    
   15    7    8 1     
   16    7   36 1     
   17    7   37 1     
   18    8   12 1     
   19    8    9 1     
   20    9   10 2     
   21   10   11 1     
   22   11   12 2     
   23   11   13 1     
   24   13   19 2     
   25   13   14 1     
   26   14   15 1     
   27   15   16 1     
   28   15   17 am    
   29   17   18 2     
   30   17   19 1     
   31   19   20 1     
   32   20   21 1     
   33   20   38 1     
   34   20   39 1     
   35   21   22 1     
   36   21   26 1     
   37   21   40 1     
   38   22   23 1     
   39   22   24 1     
   40   22   25 1     
   41   26   27 ar    
   42   26   28 ar    
   43   29   41 1     
@<TRIPOS>SUBSTRUCTURE
      1 ****           1
@<TRIPOS>SET
DONOR_HYDROGENS      STATIC     ATOMS    <user>   **** ""
4 16 23 24 25
ATOM$RED        STATIC     ATOMS    COLORGROUP SYSTEM
4 16 23 24 25
