#       Name:                5YD
#       Creating user name   gbret
#       Creation time:       Fri Sep  9 01:51:42 2016


#       File generated by GOLD software.
#

@<TRIPOS>MOLECULE
5YD
    46    48     1
SMALL
NO_CHARGES


@<TRIPOS>ATOM
      1 F1          -0.0222  -6.5522  -5.0992 F              1 <1>                0.0000
      2 C2          -0.0405  -5.2013  -5.0918 C.ar           1 <1>                0.0000
      3 C3          -1.2485  -4.5249  -5.0708 C.ar           1 <1>                0.0000
      4 C4          -1.2660  -3.1431  -5.0633 C.ar           1 <1>                0.0000
      5 C5          -0.0781  -2.4361  -5.0766 C.ar           1 <1>                0.0000
      6 C6           1.1286  -3.1104  -5.0975 C.ar           1 <1>                0.0000
      7 C7           1.1487  -4.4922  -5.0993 C.ar           1 <1>                0.0000
      8 S8          -0.1020  -0.6743  -5.0676 S.o2           1 <1>                0.0000
      9 O9           1.1343  -0.2533  -5.6275 O.2            1 <1>                0.0000
     10 O10         -1.3646  -0.2874  -5.5923 O.2            1 <1>                0.0000
     11 N11         -0.0862  -0.1920  -3.4835 N.pl3          1 <1>                0.0000
     12 C12          1.0796  -0.4758  -2.6429 C.3            1 <1>                0.0000
     13 C13          1.0136   0.3629  -1.3926 C.ar           1 <1>                0.0000
     14 C14          1.5895   1.6208  -1.3758 C.ar           1 <1>                0.0000
     15 C15          1.5326   2.3936  -0.2345 C.ar           1 <1>                0.0000
     16 C16          0.8922   1.9040   0.9050 C.ar           1 <1>                0.0000
     17 C17          0.3133   0.6342   0.8813 C.ar           1 <1>                0.0000
     18 C18          0.3724  -0.1262  -0.2683 C.ar           1 <1>                0.0000
     19 C19          0.8279   2.7266   2.1318 C.2            1 <1>                0.0000
     20 O20          1.3333   3.8319   2.1496 O.2            1 <1>                0.0000
     21 N21          0.2088   2.2509   3.2304 N.am           1 <1>                0.0000
     22 C22          0.1450   3.0660   4.4460 C.3            1 <1>                0.0000
     23 C23         -0.5947   2.3100   5.5195 C.ar           1 <1>                0.0000
     24 C24         -1.9707   2.4307   5.6419 C.ar           1 <1>                0.0000
     25 C25         -2.6091   1.7167   6.6440 C.ar           1 <1>                0.0000
     26 C26         -1.8582   0.9138   7.4820 C.ar           1 <1>                0.0000
     27 N27         -0.5508   0.8235   7.3365 N.ar           1 <1>                0.0000
     28 C28          0.0889   1.4835   6.3906 C.ar           1 <1>                0.0000
     29 H29         -2.1767  -5.0770  -5.0607 H              1 <1>                0.0000
     30 H30         -2.2081  -2.6152  -5.0473 H              1 <1>                0.0000
     31 H31          2.0560  -2.5571  -5.1083 H              1 <1>                0.0000
     32 H32          2.0915  -5.0188  -5.1157 H              1 <1>                0.0000
     33 H33         -0.8489   0.2785  -3.1121 H              1 <1>                0.0000
     34 H34          1.0840  -1.5317  -2.3724 H              1 <1>                0.0000
     35 H35          1.9904  -0.2377  -3.1924 H              1 <1>                0.0000
     36 H36          2.0850   1.9983  -2.2581 H              1 <1>                0.0000
     37 H37          1.9829   3.3752  -0.2226 H              1 <1>                0.0000
     38 H38         -0.1836   0.2495   1.7597 H              1 <1>                0.0000
     39 H39         -0.0752  -1.1089  -0.2879 H              1 <1>                0.0000
     40 H40         -0.1945   1.3688   3.2162 H              1 <1>                0.0000
     41 H41          1.1559   3.2874   4.7884 H              1 <1>                0.0000
     42 H42         -0.3782   3.9978   4.2316 H              1 <1>                0.0000
     43 H43         -2.5317   3.0662   4.9726 H              1 <1>                0.0000
     44 H44         -3.6796   1.7870   6.7687 H              1 <1>                0.0000
     45 H45         -2.3480   0.3543   8.2653 H              1 <1>                0.0000
     46 H46          1.1607   1.3842   6.3020 H              1 <1>                0.0000
@<TRIPOS>BOND
    1    1    2 1     
    2    2    7 ar    
    3    2    3 ar    
    4    3    4 ar    
    5    3   29 1     
    6    4    5 ar    
    7    4   30 1     
    8    5    6 ar    
    9    5    8 1     
   10    6    7 ar    
   11    6   31 1     
   12    7   32 1     
   13    8    9 2     
   14    8   10 2     
   15    8   11 1     
   16   11   12 1     
   17   11   33 1     
   18   12   13 1     
   19   12   34 1     
   20   12   35 1     
   21   13   18 ar    
   22   13   14 ar    
   23   14   15 ar    
   24   14   36 1     
   25   15   16 ar    
   26   15   37 1     
   27   16   17 ar    
   28   16   19 1     
   29   17   18 ar    
   30   17   38 1     
   31   18   39 1     
   32   19   20 2     
   33   19   21 am    
   34   21   22 1     
   35   21   40 1     
   36   22   23 1     
   37   22   41 1     
   38   22   42 1     
   39   23   28 ar    
   40   23   24 ar    
   41   24   25 ar    
   42   24   43 1     
   43   25   26 ar    
   44   25   44 1     
   45   26   27 ar    
   46   26   45 1     
   47   27   28 ar    
   48   28   46 1     
@<TRIPOS>SUBSTRUCTURE
      1 ****           1
@<TRIPOS>SET
DONOR_HYDROGENS      STATIC     ATOMS    <user>   **** ""
2 33 40
ATOM$RED        STATIC     ATOMS    COLORGROUP SYSTEM
2 33 40
