#       Name:                5ZA
#       Creating user name   gbret
#       Creation time:       Fri Sep  9 01:52:12 2016


#       File generated by GOLD software.
#

@<TRIPOS>MOLECULE
5ZA
    46    48     1
SMALL
NO_CHARGES


@<TRIPOS>ATOM
      1 C1          -0.0695   5.5587  -0.2942 C.3            1 <1>                0.0000
      2 C2          -0.1465   4.0379  -0.4429 C.3            1 <1>                0.0000
      3 O3           0.2026   3.6717  -1.7794 O.3            1 <1>                0.0000
      4 C4           0.8269   3.3797   0.5370 C.3            1 <1>                0.0000
      5 N5           0.4681   3.7561   1.9108 N.4            1 <1>                0.0000
      6 H6           1.1100   3.3220   2.5570 H              1 <1>                0.0000
      7 H7           0.5189   4.7590   2.0089 H              1 <1>                0.0000
      8 H8          -0.4711   3.4458   2.1102 H              1 <1>                0.0000
      9 C9           0.7511   1.8818   0.3904 C.2            1 <1>                0.0000
     10 N10         -0.0592   1.1210   1.0572 N.pl3          1 <1>                0.0000
     11 H11         -0.7006   1.4267   1.7176 H              1 <1>                0.0000
     12 C12          0.1318  -0.1801   0.6833 C.2            1 <1>                0.0000
     13 C13         -0.5370  -1.2928   1.1621 C.2            1 <1>                0.0000
     14 C14         -0.1150  -2.5885   0.7839 C.2            1 <1>                0.0000
     15 C15          1.1865  -3.0323   0.6560 C.2            1 <1>                0.0000
     16 N16          1.1836  -4.3324   0.2759 N.pl3          1 <1>                0.0000
     17 H17          1.9799  -4.8645   0.1218 H              1 <1>                0.0000
     18 C18         -0.1096  -4.7953   0.1388 C.ar           1 <1>                0.0000
     19 C19         -0.6403  -6.0311  -0.2232 C.ar           1 <1>                0.0000
     20 C20         -2.0059  -6.2079  -0.2768 C.ar           1 <1>                0.0000
     21 C21         -2.8669  -5.1649   0.0264 C.ar           1 <1>                0.0000
     22 C22         -2.3610  -3.9272   0.3884 C.ar           1 <1>                0.0000
     23 N23         -3.2270  -2.8760   0.6935 N.pl3          1 <1>                0.0000
     24 C24         -0.9772  -3.7401   0.4528 C.ar           1 <1>                0.0000
     25 C25          1.1924  -0.1532  -0.3312 C.2            1 <1>                0.0000
     26 O26          1.6685  -1.1032  -0.9284 O.2            1 <1>                0.0000
     27 N27          1.5238   1.1499  -0.4669 N.am           1 <1>                0.0000
     28 C28          2.5441   1.6855  -1.3716 C.3            1 <1>                0.0000
     29 C29          1.9150   2.0114  -2.7016 C.2            1 <1>                0.0000
     30 O30          0.7247   1.8145  -2.8776 O.co2          1 <1>                0.0000
     31 O31          2.5963   2.4719  -3.6017 O.co2          1 <1>                0.0000
     32 H32          0.9451   5.8939  -0.5095 H              1 <1>                0.0000
     33 H33         -0.7629   6.0276  -0.9923 H              1 <1>                0.0000
     34 H34         -0.3357   5.8380   0.7252 H              1 <1>                0.0000
     35 H35         -1.1610   3.7027  -0.2276 H              1 <1>                0.0000
     36 H36         -0.3737   4.0541  -2.4552 H              1 <1>                0.0000
     37 H37          1.8415   3.7149   0.3216 H              1 <1>                0.0000
     38 H38         -1.3813  -1.1718   1.8246 H              1 <1>                0.0000
     39 H39          2.0693  -2.4355   0.8318 H              1 <1>                0.0000
     40 H40          0.0195  -6.8520  -0.4626 H              1 <1>                0.0000
     41 H41         -2.4096  -7.1693  -0.5584 H              1 <1>                0.0000
     42 H42         -3.9351  -5.3175  -0.0201 H              1 <1>                0.0000
     43 H43         -4.1867  -3.0108   0.6525 H              1 <1>                0.0000
     44 H44         -2.8692  -2.0107   0.9467 H              1 <1>                0.0000
     45 H45          2.9726   2.5904  -0.9409 H              1 <1>                0.0000
     46 H46          3.3297   0.9433  -1.5133 H              1 <1>                0.0000
@<TRIPOS>BOND
    1    1    2 1     
    2    1   32 1     
    3    1   33 1     
    4    1   34 1     
    5    2    3 1     
    6    2    4 1     
    7    2   35 1     
    8    3   36 1     
    9    4    5 1     
   10    4    9 1     
   11    4   37 1     
   12    5    6 1     
   13    5    7 1     
   14    5    8 1     
   15    9   27 2     
   16    9   10 1     
   17   10   11 1     
   18   10   12 1     
   19   12   13 2     
   20   12   25 1     
   21   13   14 1     
   22   13   38 1     
   23   14   24 1     
   24   14   15 2     
   25   15   16 1     
   26   15   39 1     
   27   16   17 1     
   28   16   18 1     
   29   18   24 ar    
   30   18   19 ar    
   31   19   20 ar    
   32   19   40 1     
   33   20   21 ar    
   34   20   41 1     
   35   21   22 ar    
   36   21   42 1     
   37   22   23 1     
   38   22   24 ar    
   39   23   43 1     
   40   23   44 1     
   41   25   26 2     
   42   25   27 am    
   43   27   28 1     
   44   28   29 1     
   45   28   45 1     
   46   28   46 1     
   47   29   30 ar    
   48   29   31 ar    
@<TRIPOS>SUBSTRUCTURE
      1 ****           1
@<TRIPOS>SET
DONOR_HYDROGENS      STATIC     ATOMS    <user>   **** ""
8 36 6 7 8 11 17 43 44
ATOM$RED        STATIC     ATOMS    COLORGROUP SYSTEM
8 36 6 7 8 11 17 43 44
