#       Name:                611
#       Creating user name   gbret
#       Creation time:       Fri Sep  9 01:54:16 2016


#       File generated by GOLD software.
#

@<TRIPOS>MOLECULE
611
    49    51     1
SMALL
NO_CHARGES


@<TRIPOS>ATOM
      1 O1           3.1612   3.3157   2.1239 O.3            1 <1>                0.0000
      2 C2           3.1806   1.8868   2.1160 C.3            1 <1>                0.0000
      3 C3           1.7488   1.3085   1.9503 C.3            1 <1>                0.0000
      4 O4           0.7868   2.1365   2.6069 O.3            1 <1>                0.0000
      5 C5           1.5544   1.3486   0.4193 C.3            1 <1>                0.0000
      6 O6           2.8542   1.3931  -0.1810 O.3            1 <1>                0.0000
      7 C7           3.8666   1.3447   0.8369 C.3            1 <1>                0.0000
      8 S8           5.2699   2.3994   0.3798 S.3            1 <1>                0.0000
      9 C9           5.9346   1.5841  -1.0338 C.ar           1 <1>                0.0000
     10 C10          5.3546   0.4133  -1.5238 C.ar           1 <1>                0.0000
     11 C11          5.9050  -0.1935  -2.6326 C.ar           1 <1>                0.0000
     12 N12          6.9660   0.3190  -3.2280 N.ar           1 <1>                0.0000
     13 C13          7.5435   1.4244  -2.7953 C.ar           1 <1>                0.0000
     14 C14          7.0514   2.0955  -1.6961 C.ar           1 <1>                0.0000
     15 C15          0.8232   0.1119  -0.0357 C.2            1 <1>                0.0000
     16 C16         -0.3294   0.2207  -0.6487 C.2            1 <1>                0.0000
     17 C17         -1.0605  -1.0160  -1.1037 C.3            1 <1>                0.0000
     18 N18         -2.4149  -1.0159  -0.5452 N.am           1 <1>                0.0000
     19 C19         -3.2570  -2.0318  -0.8194 C.2            1 <1>                0.0000
     20 O20         -2.8927  -2.9484  -1.5304 O.2            1 <1>                0.0000
     21 C21         -4.6210  -2.0317  -0.2568 C.ar           1 <1>                0.0000
     22 C22         -5.0454  -0.9766   0.5564 C.ar           1 <1>                0.0000
     23 C23         -6.3197  -0.9797   1.0794 C.ar           1 <1>                0.0000
     24 C24         -7.1867  -2.0247   0.8043 C.ar           1 <1>                0.0000
     25 C25         -6.7810  -3.0768   0.0012 C.ar           1 <1>                0.0000
     26 O26         -7.6376  -4.0991  -0.2645 O.3            1 <1>                0.0000
     27 C27         -5.4985  -3.0850  -0.5393 C.ar           1 <1>                0.0000
     28 O28         -5.0969  -4.1148  -1.3273 O.co2          1 <1>                0.0000
     29 N29         -6.7649   0.1390   1.9403 N.pl3          1 <1>                0.0000
     30 O30         -6.0052   1.0592   2.1846 O.2            1 <1>                0.0000
     31 O31         -7.8910   0.1395   2.4045 O.2            1 <1>                0.0000
     32 H32          4.0391   3.7210   2.1177 H              1 <1>                0.0000
     33 H33          3.6605   1.4980   3.0141 H              1 <1>                0.0000
     34 H34          1.6977   0.2860   2.3243 H              1 <1>                0.0000
     35 H35          0.9209   2.2143   3.5614 H              1 <1>                0.0000
     36 H36          0.9882   2.2376   0.1416 H              1 <1>                0.0000
     37 H37          4.1986   0.3181   0.9917 H              1 <1>                0.0000
     38 H38          4.4869  -0.0117  -1.0410 H              1 <1>                0.0000
     39 H39          5.4628  -1.0999  -3.0189 H              1 <1>                0.0000
     40 H40          8.4103   1.8102  -3.3113 H              1 <1>                0.0000
     41 H41          7.5287   2.9993  -1.3473 H              1 <1>                0.0000
     42 H42          1.2495  -0.8641   0.1435 H              1 <1>                0.0000
     43 H43         -0.7556   1.1967  -0.8280 H              1 <1>                0.0000
     44 H44         -1.1165  -1.0251  -2.1923 H              1 <1>                0.0000
     45 H45         -0.5258  -1.9014  -0.7599 H              1 <1>                0.0000
     46 H46         -2.7055  -0.2846   0.0220 H              1 <1>                0.0000
     47 H47         -4.3741  -0.1593   0.7748 H              1 <1>                0.0000
     48 H48         -8.1840  -2.0187   1.2187 H              1 <1>                0.0000
     49 H49         -8.1788  -3.9637  -1.0544 H              1 <1>                0.0000
@<TRIPOS>BOND
    1    1    2 1     
    2    1   32 1     
    3    2    7 1     
    4    2    3 1     
    5    2   33 1     
    6    3    4 1     
    7    3    5 1     
    8    3   34 1     
    9    4   35 1     
   10    5    6 1     
   11    5   15 1     
   12    5   36 1     
   13    6    7 1     
   14    7    8 1     
   15    7   37 1     
   16    8    9 1     
   17    9   14 ar    
   18    9   10 ar    
   19   10   11 ar    
   20   10   38 1     
   21   11   12 ar    
   22   11   39 1     
   23   12   13 ar    
   24   13   14 ar    
   25   13   40 1     
   26   14   41 1     
   27   15   16 2     
   28   15   42 1     
   29   16   17 1     
   30   16   43 1     
   31   17   18 1     
   32   17   44 1     
   33   17   45 1     
   34   18   19 am    
   35   18   46 1     
   36   19   20 2     
   37   19   21 1     
   38   21   27 ar    
   39   21   22 ar    
   40   22   23 ar    
   41   22   47 1     
   42   23   24 ar    
   43   23   29 1     
   44   24   25 ar    
   45   24   48 1     
   46   25   26 1     
   47   25   27 ar    
   48   26   49 1     
   49   27   28 ar    
   50   29   30 2     
   51   29   31 2     
@<TRIPOS>SUBSTRUCTURE
      1 ****           1
@<TRIPOS>SET
DONOR_HYDROGENS      STATIC     ATOMS    <user>   **** ""
4 32 35 46 49
ATOM$RED        STATIC     ATOMS    COLORGROUP SYSTEM
4 32 35 46 49
