#       Name:                61H
#       Creating user name   gbret
#       Creation time:       Fri Sep  9 01:55:03 2016


#       File generated by GOLD software.
#

@<TRIPOS>MOLECULE
61H
    43    46     1
SMALL
NO_CHARGES


@<TRIPOS>ATOM
      1 O1           1.1015   3.8715  -2.8806 O.3            1 <1>                0.0000
      2 C2           1.1209   2.4426  -2.8885 C.3            1 <1>                0.0000
      3 C3           1.6736   1.8830  -1.5493 C.3            1 <1>                0.0000
      4 C4           0.4208   1.8953  -0.6472 C.3            1 <1>                0.0000
      5 O5          -0.7283   1.9080  -1.5023 O.3            1 <1>                0.0000
      6 C6          -0.3167   1.8646  -2.8779 C.3            1 <1>                0.0000
      7 C7          -1.2427   2.7282  -3.7368 C.3            1 <1>                0.0000
      8 O8          -2.5501   2.1517  -3.7553 O.3            1 <1>                0.0000
      9 P9          -3.7824   2.7989  -4.5645 P.3            1 <1>                0.0000
     10 O10         -4.9187   1.7596  -4.6900 O.co2          1 <1>                0.0000
     11 O11         -4.3015   4.0405  -3.8055 O.co2          1 <1>                0.0000
     12 C12          0.4011   0.6610   0.2172 C.ar           1 <1>                0.0000
     13 C13         -0.0339  -0.5451  -0.3197 C.ar           1 <1>                0.0000
     14 C14         -0.0619  -1.6788   0.4415 C.ar           1 <1>                0.0000
     15 C15          0.3513  -1.6277   1.7741 C.ar           1 <1>                0.0000
     16 C16          0.7948  -0.4034   2.3236 C.ar           1 <1>                0.0000
     17 C17          1.2127  -0.3475   3.6734 C.ar           1 <1>                0.0000
     18 C18          1.1993  -1.4431   4.4594 C.ar           1 <1>                0.0000
     19 C19          0.7667  -2.6970   3.9693 C.ar           1 <1>                0.0000
     20 C20          0.7562  -3.8298   4.7956 C.ar           1 <1>                0.0000
     21 C21          0.3336  -5.0272   4.2975 C.ar           1 <1>                0.0000
     22 C22         -0.0880  -5.1425   2.9781 C.ar           1 <1>                0.0000
     23 C23         -0.0897  -4.0579   2.1480 C.ar           1 <1>                0.0000
     24 C24          0.3378  -2.8186   2.6282 C.ar           1 <1>                0.0000
     25 C25          0.8158   0.7413   1.5141 C.ar           1 <1>                0.0000
     26 H26          1.9794   4.2768  -2.8868 H              1 <1>                0.0000
     27 H27          1.6900   2.0646  -3.7377 H              1 <1>                0.0000
     28 H28          2.0486   0.8677  -1.6785 H              1 <1>                0.0000
     29 H29          2.4481   2.5355  -1.1464 H              1 <1>                0.0000
     30 H30          0.4252   2.7870  -0.0205 H              1 <1>                0.0000
     31 H31         -0.3137   0.8364  -3.2396 H              1 <1>                0.0000
     32 H32         -1.2945   3.7330  -3.3177 H              1 <1>                0.0000
     33 H33         -0.8532   2.7782  -4.7536 H              1 <1>                0.0000
     34 H34         -3.3477   3.1838  -5.8603 H              1 <1>                0.0000
     35 H35         -0.3538  -0.5861  -1.3504 H              1 <1>                0.0000
     36 H36         -0.4024  -2.6105   0.0145 H              1 <1>                0.0000
     37 H37          1.5503   0.5928   4.0834 H              1 <1>                0.0000
     38 H38          1.5263  -1.3612   5.4855 H              1 <1>                0.0000
     39 H39          1.0818  -3.7545   5.8226 H              1 <1>                0.0000
     40 H40          0.3269  -5.8975   4.9369 H              1 <1>                0.0000
     41 H41         -0.4178  -6.1009   2.6049 H              1 <1>                0.0000
     42 H42         -0.4194  -4.1587   1.1245 H              1 <1>                0.0000
     43 H43          1.1521   1.6847   1.9181 H              1 <1>                0.0000
@<TRIPOS>BOND
    1    1    2 1     
    2    1   26 1     
    3    2    6 1     
    4    2    3 1     
    5    2   27 1     
    6    3    4 1     
    7    3   28 1     
    8    3   29 1     
    9    4    5 1     
   10    4   12 1     
   11    4   30 1     
   12    5    6 1     
   13    6    7 1     
   14    6   31 1     
   15    7    8 1     
   16    7   32 1     
   17    7   33 1     
   18    8    9 1     
   19    9   10 ar    
   20    9   11 ar    
   21    9   34 1     
   22   12   25 ar    
   23   12   13 ar    
   24   13   14 ar    
   25   13   35 1     
   26   14   15 ar    
   27   14   36 1     
   28   15   24 ar    
   29   15   16 ar    
   30   16   17 ar    
   31   16   25 ar    
   32   17   18 ar    
   33   17   37 1     
   34   18   19 ar    
   35   18   38 1     
   36   19   24 ar    
   37   19   20 ar    
   38   20   21 ar    
   39   20   39 1     
   40   21   22 ar    
   41   21   40 1     
   42   22   23 ar    
   43   22   41 1     
   44   23   24 ar    
   45   23   42 1     
   46   25   43 1     
@<TRIPOS>SUBSTRUCTURE
      1 ****           1
@<TRIPOS>SET
DONOR_HYDROGENS      STATIC     ATOMS    <user>   **** ""
1 26
ATOM$RED        STATIC     ATOMS    COLORGROUP SYSTEM
1 26
