#       Name:                65A
#       Creating user name   gbret
#       Creation time:       Fri Sep  9 02:01:41 2016


#       File generated by GOLD software.
#

@<TRIPOS>MOLECULE
65A
    46    49     1
SMALL
NO_CHARGES


@<TRIPOS>ATOM
      1 C1          -0.6508   3.7896   0.6586 C.3            1 <1>                0.0000
      2 O2          -0.6314   2.3607   0.6507 O.3            1 <1>                0.0000
      3 C3          -0.0084   1.7472   1.6889 C.ar           1 <1>                0.0000
      4 C4           0.5682   2.5015   2.6988 C.ar           1 <1>                0.0000
      5 C5           1.2019   1.8759   3.7548 C.ar           1 <1>                0.0000
      6 C6           1.2669   0.4936   3.8132 C.ar           1 <1>                0.0000
      7 C7           0.6991  -0.2717   2.8172 C.ar           1 <1>                0.0000
      8 C8           0.0496   0.3483   1.7474 C.ar           1 <1>                0.0000
      9 C9          -0.5607  -0.4655   0.6771 C.ar           1 <1>                0.0000
     10 C10          0.1772  -0.8439  -0.4626 C.ar           1 <1>                0.0000
     11 C11          1.5728  -0.4093  -0.6035 C.2            1 <1>                0.0000
     12 O12          2.0460   0.4308   0.1330 O.2            1 <1>                0.0000
     13 C13          2.4013  -1.0464  -1.7000 C.3            1 <1>                0.0000
     14 C14          1.5170  -1.1301  -2.9512 C.3            1 <1>                0.0000
     15 C15          0.9953   0.2649  -3.3015 C.3            1 <1>                0.0000
     16 C16          2.3383  -1.6763  -4.1208 C.3            1 <1>                0.0000
     17 C17          0.3387  -2.0603  -2.6782 C.3            1 <1>                0.0000
     18 C18         -0.4268  -1.6269  -1.4550 C.ar           1 <1>                0.0000
     19 N19         -1.6845  -2.0011  -1.3334 N.ar           1 <1>                0.0000
     20 C20         -2.4339  -1.6703  -0.2871 C.ar           1 <1>                0.0000
     21 N21         -3.7325  -1.9329   0.0520 N.pl3          1 <1>                0.0000
     22 H22         -4.3630  -2.4501  -0.4732 H              1 <1>                0.0000
     23 N23         -3.9961  -1.3285   1.2863 N.2            1 <1>                0.0000
     24 C24         -2.9298  -0.7144   1.7119 C.2            1 <1>                0.0000
     25 C25         -2.8120   0.0549   3.0024 C.3            1 <1>                0.0000
     26 C26         -1.9003  -0.8964   0.7617 C.ar           1 <1>                0.0000
     27 H27          0.3718   4.1669   0.6508 H              1 <1>                0.0000
     28 H28         -1.1780   4.1507  -0.2245 H              1 <1>                0.0000
     29 H29         -1.1610   4.1411   1.5554 H              1 <1>                0.0000
     30 H30          0.5222   3.5799   2.6598 H              1 <1>                0.0000
     31 H31          1.6497   2.4681   4.5392 H              1 <1>                0.0000
     32 H32          1.7647   0.0133   4.6426 H              1 <1>                0.0000
     33 H33          0.7527  -1.3493   2.8662 H              1 <1>                0.0000
     34 H34          3.2782  -0.4328  -1.9062 H              1 <1>                0.0000
     35 H35          2.7106  -2.0468  -1.3972 H              1 <1>                0.0000
     36 H36          1.8372   0.9295  -3.4954 H              1 <1>                0.0000
     37 H37          0.3672   0.2053  -4.1903 H              1 <1>                0.0000
     38 H38          0.4099   0.6537  -2.4683 H              1 <1>                0.0000
     39 H39          2.7096  -2.6703  -3.8713 H              1 <1>                0.0000
     40 H40          1.7100  -1.7357  -5.0095 H              1 <1>                0.0000
     41 H41          3.1805  -1.0121  -4.3149 H              1 <1>                0.0000
     42 H42         -0.3296  -2.0523  -3.5392 H              1 <1>                0.0000
     43 H43          0.7112  -3.0733  -2.5259 H              1 <1>                0.0000
     44 H44         -2.4838  -0.6157   3.7965 H              1 <1>                0.0000
     45 H45         -2.0850   0.8580   2.8815 H              1 <1>                0.0000
     46 H46         -3.7819   0.4788   3.2625 H              1 <1>                0.0000
@<TRIPOS>BOND
    1    1    2 1     
    2    1   27 1     
    3    1   28 1     
    4    1   29 1     
    5    2    3 1     
    6    3    8 ar    
    7    3    4 ar    
    8    4    5 ar    
    9    4   30 1     
   10    5    6 ar    
   11    5   31 1     
   12    6    7 ar    
   13    6   32 1     
   14    7    8 ar    
   15    7   33 1     
   16    8    9 1     
   17    9   26 ar    
   18    9   10 ar    
   19   10   18 ar    
   20   10   11 1     
   21   11   12 2     
   22   11   13 1     
   23   13   14 1     
   24   13   34 1     
   25   13   35 1     
   26   14   15 1     
   27   14   16 1     
   28   14   17 1     
   29   15   36 1     
   30   15   37 1     
   31   15   38 1     
   32   16   39 1     
   33   16   40 1     
   34   16   41 1     
   35   17   18 1     
   36   17   42 1     
   37   17   43 1     
   38   18   19 ar    
   39   19   20 ar    
   40   20   26 ar    
   41   20   21 1     
   42   21   22 1     
   43   21   23 1     
   44   23   24 2     
   45   24   25 1     
   46   24   26 1     
   47   25   44 1     
   48   25   45 1     
   49   25   46 1     
@<TRIPOS>SUBSTRUCTURE
      1 ****           1
@<TRIPOS>SET
DONOR_HYDROGENS      STATIC     ATOMS    <user>   **** ""
1 22
ATOM$RED        STATIC     ATOMS    COLORGROUP SYSTEM
1 22
