#       Name:                662
#       Creating user name   gbret
#       Creation time:       Fri Sep  9 02:02:10 2016


#       File generated by GOLD software.
#

@<TRIPOS>MOLECULE
662
    72    76     1
SMALL
NO_CHARGES


@<TRIPOS>ATOM
      1 C1          -1.9728  11.3950   4.5270 C.3            1 <1>                0.0000
      2 C2          -1.9520   9.8651   4.5186 C.3            1 <1>                0.0000
      3 C3          -1.2359   9.3717   3.2598 C.3            1 <1>                0.0000
      4 N4          -1.2160   7.9069   3.2518 N.pl3          1 <1>                0.0000
      5 C5          -0.6174   7.2287   2.2044 C.ar           1 <1>                0.0000
      6 N6          -0.0511   7.8909   1.2008 N.ar           1 <1>                0.0000
      7 C7           0.5223   7.2523   0.1973 C.ar           1 <1>                0.0000
      8 N8           0.5677   5.9384   0.1296 N.ar           1 <1>                0.0000
      9 C9           0.0279   5.1918   1.0873 C.ar           1 <1>                0.0000
     10 N10         -0.0934   3.8439   1.3125 N.pl3          1 <1>                0.0000
     11 C11         -0.7614   3.6848   2.4901 C.2            1 <1>                0.0000
     12 N12         -1.0542   4.8476   2.9958 N.2            1 <1>                0.0000
     13 C13         -0.5890   5.8241   2.1802 C.ar           1 <1>                0.0000
     14 C14          0.4034   2.7721   0.4460 C.3            1 <1>                0.0000
     15 O15          0.5289   1.5410   1.1906 O.3            1 <1>                0.0000
     16 C16          0.5293   0.4934   0.1965 C.3            1 <1>                0.0000
     17 C17          0.1521  -0.8244   0.8228 C.2            1 <1>                0.0000
     18 C18          0.9760  -1.8407   0.7567 C.2            1 <1>                0.0000
     19 C19          0.5988  -3.1584   1.3831 C.3            1 <1>                0.0000
     20 N20          0.6875  -4.2202   0.3776 N.am           1 <1>                0.0000
     21 C21          0.3934  -5.4920   0.7129 C.2            1 <1>                0.0000
     22 O22          0.0545  -5.7582   1.8498 O.2            1 <1>                0.0000
     23 C23          0.4828  -6.5616  -0.3000 C.ar           1 <1>                0.0000
     24 C24          0.8772  -6.2594  -1.6045 C.ar           1 <1>                0.0000
     25 C25          0.9596  -7.2697  -2.5540 C.ar           1 <1>                0.0000
     26 C26          0.6483  -8.5853  -2.2052 C.ar           1 <1>                0.0000
     27 C27          0.2575  -8.8888  -0.9148 C.ar           1 <1>                0.0000
     28 O28         -0.0445 -10.1723  -0.5812 O.3            1 <1>                0.0000
     29 C29          0.1778  -7.8838   0.0459 C.ar           1 <1>                0.0000
     30 O30         -0.2062  -8.1836   1.3127 O.3            1 <1>                0.0000
     31 C31          1.3786  -6.9504  -3.9411 C.ar           1 <1>                0.0000
     32 C32          1.6951  -5.6392  -4.2912 C.ar           1 <1>                0.0000
     33 C33          2.0842  -5.3467  -5.5822 C.ar           1 <1>                0.0000
     34 C34          2.1601  -6.3543  -6.5301 C.ar           1 <1>                0.0000
     35 F35          2.5412  -6.0634  -7.7932 F              1 <1>                0.0000
     36 C36          1.8469  -7.6593  -6.1863 C.ar           1 <1>                0.0000
     37 C37          1.4624  -7.9617  -4.8961 C.ar           1 <1>                0.0000
     38 C38         -0.5390   0.9252  -0.8324 C.3            1 <1>                0.0000
     39 C39         -1.8864   0.2754  -0.5110 C.3            1 <1>                0.0000
     40 C40         -0.6238   2.4588  -0.6645 C.3            1 <1>                0.0000
     41 O41         -1.9371   2.8458  -0.2555 O.3            1 <1>                0.0000
     42 H42         -0.9502  11.7723   4.5193 H              1 <1>                0.0000
     43 H43         -2.5000  11.7560   3.6440 H              1 <1>                0.0000
     44 H44         -2.4830  11.7465   5.4238 H              1 <1>                0.0000
     45 H45         -1.4248   9.5041   5.4017 H              1 <1>                0.0000
     46 H46         -2.9746   9.4878   4.5264 H              1 <1>                0.0000
     47 H47         -1.7631   9.7328   2.3768 H              1 <1>                0.0000
     48 H48         -0.2133   9.7490   3.2521 H              1 <1>                0.0000
     49 H49         -1.6225   7.4123   3.9805 H              1 <1>                0.0000
     50 H50          0.9707   7.8295  -0.5978 H              1 <1>                0.0000
     51 H51         -1.0113   2.7339   2.9372 H              1 <1>                0.0000
     52 H52          1.3616   3.0523   0.0085 H              1 <1>                0.0000
     53 H53          1.5080   0.4209  -0.2779 H              1 <1>                0.0000
     54 H54         -0.7975  -0.9308   1.3262 H              1 <1>                0.0000
     55 H55          1.9256  -1.7342   0.2534 H              1 <1>                0.0000
     56 H56          1.2802  -3.3784   2.2049 H              1 <1>                0.0000
     57 H57         -0.4215  -3.1016   1.7624 H              1 <1>                0.0000
     58 H58          0.9579  -4.0079  -0.5294 H              1 <1>                0.0000
     59 H59          1.1174  -5.2418  -1.8751 H              1 <1>                0.0000
     60 H60          0.7128  -9.3683  -2.9463 H              1 <1>                0.0000
     61 H61          0.7115 -10.6840  -0.2623 H              1 <1>                0.0000
     62 H62          0.5254  -8.4151   1.9011 H              1 <1>                0.0000
     63 H63          1.6354  -4.8530  -3.5531 H              1 <1>                0.0000
     64 H64          2.3296  -4.3307  -5.8544 H              1 <1>                0.0000
     65 H65          1.9077  -8.4418  -6.9282 H              1 <1>                0.0000
     66 H66          1.2183  -8.9793  -4.6290 H              1 <1>                0.0000
     67 H67         -0.2227   0.6664  -1.8429 H              1 <1>                0.0000
     68 H68         -2.1968   0.5608   0.4941 H              1 <1>                0.0000
     69 H69         -2.6327   0.6112  -1.2310 H              1 <1>                0.0000
     70 H70         -1.7895  -0.8089  -0.5672 H              1 <1>                0.0000
     71 H71         -0.3483   2.9604  -1.5922 H              1 <1>                0.0000
     72 H72         -2.0466   3.7990  -0.1350 H              1 <1>                0.0000
@<TRIPOS>BOND
    1    1    2 1     
    2    1   42 1     
    3    1   43 1     
    4    1   44 1     
    5    2    3 1     
    6    2   45 1     
    7    2   46 1     
    8    3    4 1     
    9    3   47 1     
   10    3   48 1     
   11    4    5 1     
   12    4   49 1     
   13    5   13 ar    
   14    5    6 ar    
   15    6    7 ar    
   16    7    8 ar    
   17    7   50 1     
   18    8    9 ar    
   19    9   13 ar    
   20    9   10 1     
   21   10   11 1     
   22   10   14 1     
   23   11   12 2     
   24   11   51 1     
   25   12   13 1     
   26   14   40 1     
   27   14   15 1     
   28   14   52 1     
   29   15   16 1     
   30   16   17 1     
   31   16   38 1     
   32   16   53 1     
   33   17   18 2     
   34   17   54 1     
   35   18   19 1     
   36   18   55 1     
   37   19   20 1     
   38   19   56 1     
   39   19   57 1     
   40   20   21 am    
   41   20   58 1     
   42   21   22 2     
   43   21   23 1     
   44   23   29 ar    
   45   23   24 ar    
   46   24   25 ar    
   47   24   59 1     
   48   25   26 ar    
   49   25   31 1     
   50   26   27 ar    
   51   26   60 1     
   52   27   28 1     
   53   27   29 ar    
   54   28   61 1     
   55   29   30 1     
   56   30   62 1     
   57   31   37 ar    
   58   31   32 ar    
   59   32   33 ar    
   60   32   63 1     
   61   33   34 ar    
   62   33   64 1     
   63   34   35 1     
   64   34   36 ar    
   65   36   37 ar    
   66   36   65 1     
   67   37   66 1     
   68   38   39 1     
   69   38   40 1     
   70   38   67 1     
   71   39   68 1     
   72   39   69 1     
   73   39   70 1     
   74   40   41 1     
   75   40   71 1     
   76   41   72 1     
@<TRIPOS>SUBSTRUCTURE
      1 ****           1
@<TRIPOS>SET
DONOR_HYDROGENS      STATIC     ATOMS    <user>   **** ""
5 49 58 61 62 72
ATOM$RED        STATIC     ATOMS    COLORGROUP SYSTEM
5 49 58 61 62 72
