#       Name:                66X
#       Creating user name   gbret
#       Creation time:       Fri Sep  9 02:03:47 2016


#       File generated by GOLD software.
#

@<TRIPOS>MOLECULE
66X
    63    66     1
SMALL
NO_CHARGES


@<TRIPOS>ATOM
      1 C1           1.2006  10.0805  -0.6282 C.3            1 <1>                0.0000
      2 N2           1.2006   8.6155  -0.6359 N.pl3          1 <1>                0.0000
      3 C3           1.6097   7.9177   0.4871 C.ar           1 <1>                0.0000
      4 N4           1.9930   8.5909   1.5619 N.ar           1 <1>                0.0000
      5 C5           2.3908   7.9582   2.6559 C.ar           1 <1>                0.0000
      6 C6           2.4042   6.5771   2.6706 C.ar           1 <1>                0.0000
      7 C7           1.9948   5.8947   1.5231 C.ar           1 <1>                0.0000
      8 N8           1.6032   6.5935   0.4623 N.ar           1 <1>                0.0000
      9 N9           1.9919   4.5097   1.4925 N.3            1 <1>                0.0000
     10 C10          1.0488   3.9570   2.4981 C.3            1 <1>                0.0000
     11 C11          0.7817   2.5208   1.9820 C.3            1 <1>                0.0000
     12 C12          0.7474   2.7057   0.4475 C.3            1 <1>                0.0000
     13 C13          1.5227   4.0095   0.1821 C.3            1 <1>                0.0000
     14 N14          1.4069   1.5780  -0.2154 N.am           1 <1>                0.0000
     15 C15          0.7077   0.4619  -0.5017 C.2            1 <1>                0.0000
     16 O16         -0.4705   0.3911  -0.2098 O.2            1 <1>                0.0000
     17 N17          1.3144  -0.5755  -1.1116 N.am           1 <1>                0.0000
     18 C18          0.6122  -1.7658  -1.3318 C.ar           1 <1>                0.0000
     19 C19         -0.7394  -1.7278  -1.6492 C.ar           1 <1>                0.0000
     20 C20         -1.4295  -2.9041  -1.8663 C.ar           1 <1>                0.0000
     21 C21         -0.7763  -4.1191  -1.7676 C.ar           1 <1>                0.0000
     22 C22         -1.5325  -5.4008  -2.0048 C.3            1 <1>                0.0000
     23 N23         -1.9664  -5.9588  -0.7170 N.4            1 <1>                0.0000
     24 H24         -1.1702  -6.0480  -0.1036 H              1 <1>                0.0000
     25 C25         -2.9587  -5.0645  -0.1049 C.3            1 <1>                0.0000
     26 C26         -3.4090  -5.6479   1.2367 C.3            1 <1>                0.0000
     27 O27         -3.9421  -6.9583   1.0259 O.3            1 <1>                0.0000
     28 C28         -3.0196  -7.8607   0.4091 C.3            1 <1>                0.0000
     29 C29         -2.5684  -7.2815  -0.9340 C.3            1 <1>                0.0000
     30 C30          0.5693  -4.1603  -1.4523 C.ar           1 <1>                0.0000
     31 C31          1.2664  -2.9869  -1.2391 C.ar           1 <1>                0.0000
     32 C32          1.2771  -5.4864  -1.3458 C.3            1 <1>                0.0000
     33 F33          2.6448  -5.2702  -1.1456 F              1 <1>                0.0000
     34 F34          0.7561  -6.2077  -0.2663 F              1 <1>                0.0000
     35 F35          1.0877  -6.2123  -2.5266 F              1 <1>                0.0000
     36 H36          2.2126  10.4429  -0.4472 H              1 <1>                0.0000
     37 H37          0.8498  10.4489  -1.5922 H              1 <1>                0.0000
     38 H38          0.5395  10.4398   0.1604 H              1 <1>                0.0000
     39 H39          0.9138   8.1347  -1.4280 H              1 <1>                0.0000
     40 H40          2.7017   8.5163   3.5266 H              1 <1>                0.0000
     41 H41          2.7244   6.0372   3.5495 H              1 <1>                0.0000
     42 H42          1.5105   3.9315   3.4852 H              1 <1>                0.0000
     43 H43          0.1257   4.5363   2.5189 H              1 <1>                0.0000
     44 H44          1.5907   1.8502   2.2717 H              1 <1>                0.0000
     45 H45         -0.1765   2.1515   2.3475 H              1 <1>                0.0000
     46 H46         -0.2816   2.8002   0.1007 H              1 <1>                0.0000
     47 H47          0.8653   4.7446  -0.2822 H              1 <1>                0.0000
     48 H48          2.3759   3.8088  -0.4659 H              1 <1>                0.0000
     49 H49          2.3469   1.6345  -0.4483 H              1 <1>                0.0000
     50 H50          2.2379  -0.4972  -1.3979 H              1 <1>                0.0000
     51 H51         -1.2503  -0.7793  -1.7257 H              1 <1>                0.0000
     52 H52         -2.4805  -2.8752  -2.1132 H              1 <1>                0.0000
     53 H53         -2.4053  -5.1982  -2.6255 H              1 <1>                0.0000
     54 H54         -0.8848  -6.1165  -2.5111 H              1 <1>                0.0000
     55 H55         -2.5129  -4.0830   0.0566 H              1 <1>                0.0000
     56 H56         -3.8193  -4.9688  -0.7670 H              1 <1>                0.0000
     57 H57         -2.5560  -5.7064   1.9129 H              1 <1>                0.0000
     58 H58         -4.1766  -5.0084   1.6725 H              1 <1>                0.0000
     59 H59         -2.1533  -7.9949   1.0569 H              1 <1>                0.0000
     60 H60         -3.5054  -8.8227   0.2459 H              1 <1>                0.0000
     61 H61         -3.4291  -7.1849  -1.5959 H              1 <1>                0.0000
     62 H62         -1.8331  -7.9459  -1.3879 H              1 <1>                0.0000
     63 H63          2.3175  -3.0198  -0.9928 H              1 <1>                0.0000
@<TRIPOS>BOND
    1    1    2 1     
    2    1   36 1     
    3    1   37 1     
    4    1   38 1     
    5    2    3 1     
    6    2   39 1     
    7    3    8 ar    
    8    3    4 ar    
    9    4    5 ar    
   10    5    6 ar    
   11    5   40 1     
   12    6    7 ar    
   13    6   41 1     
   14    7    8 ar    
   15    7    9 1     
   16    9   13 1     
   17    9   10 1     
   18   10   11 1     
   19   10   42 1     
   20   10   43 1     
   21   11   12 1     
   22   11   44 1     
   23   11   45 1     
   24   12   13 1     
   25   12   14 1     
   26   12   46 1     
   27   13   47 1     
   28   13   48 1     
   29   14   15 am    
   30   14   49 1     
   31   15   16 2     
   32   15   17 am    
   33   17   18 1     
   34   17   50 1     
   35   18   31 ar    
   36   18   19 ar    
   37   19   20 ar    
   38   19   51 1     
   39   20   21 ar    
   40   20   52 1     
   41   21   22 1     
   42   21   30 ar    
   43   22   23 1     
   44   22   53 1     
   45   22   54 1     
   46   23   24 1     
   47   23   29 1     
   48   23   25 1     
   49   25   26 1     
   50   25   55 1     
   51   25   56 1     
   52   26   27 1     
   53   26   57 1     
   54   26   58 1     
   55   27   28 1     
   56   28   29 1     
   57   28   59 1     
   58   28   60 1     
   59   29   61 1     
   60   29   62 1     
   61   30   31 ar    
   62   30   32 1     
   63   31   63 1     
   64   32   33 1     
   65   32   34 1     
   66   32   35 1     
@<TRIPOS>SUBSTRUCTURE
      1 ****           1
@<TRIPOS>SET
DONOR_HYDROGENS      STATIC     ATOMS    <user>   **** ""
4 39 49 50 24
ATOM$RED        STATIC     ATOMS    COLORGROUP SYSTEM
4 39 49 50 24
