#       Name:                67J
#       Creating user name   gbret
#       Creation time:       Fri Sep  9 02:04:56 2016


#       File generated by GOLD software.
#

@<TRIPOS>MOLECULE
67J
    43    45     1
SMALL
NO_CHARGES


@<TRIPOS>ATOM
      1 C1          -3.0494   4.0636   3.0615 C.3            1 <1>                0.0000
      2 C2          -1.6019   3.7142   3.4130 C.3            1 <1>                0.0000
      3 N3          -0.9082   3.2415   2.2124 N.am           1 <1>                0.0000
      4 C4           0.3867   2.8745   2.2827 C.2            1 <1>                0.0000
      5 O5           1.0053   3.0213   3.3205 O.2            1 <1>                0.0000
      6 C6           1.0502   2.2986   1.1091 C.2            1 <1>                0.0000
      7 C7           1.6259   3.0578   0.1783 C.2            1 <1>                0.0000
      8 C8           1.6776   4.5638   0.1956 C.3            1 <1>                0.0000
      9 S9           2.3167   2.0353  -1.0717 S.3            1 <1>                0.0000
     10 C10          1.7668   0.5843  -0.2330 C.2            1 <1>                0.0000
     11 N11          1.9155  -0.6926  -0.5740 N.2            1 <1>                0.0000
     12 C12          1.4393  -1.6783   0.1718 C.2            1 <1>                0.0000
     13 C13          1.6315  -3.1112  -0.2533 C.3            1 <1>                0.0000
     14 C14          0.5357  -3.5023  -1.2111 C.ar           1 <1>                0.0000
     15 C15         -0.6003  -4.1341  -0.7413 C.ar           1 <1>                0.0000
     16 C16         -1.6055  -4.4929  -1.6196 C.ar           1 <1>                0.0000
     17 C17         -1.4759  -4.2204  -2.9689 C.ar           1 <1>                0.0000
     18 C18         -0.3414  -3.5885  -3.4408 C.ar           1 <1>                0.0000
     19 C19          0.6640  -3.2238  -2.5611 C.ar           1 <1>                0.0000
     20 F20          1.7738  -2.6059  -3.0214 F              1 <1>                0.0000
     21 C21         -0.2003  -3.2920  -4.9116 C.3            1 <1>                0.0000
     22 F22         -1.3360  -3.7469  -5.5901 F              1 <1>                0.0000
     23 F23         -0.0671  -1.9119  -5.0984 F              1 <1>                0.0000
     24 F24          0.9332  -3.9418  -5.4117 F              1 <1>                0.0000
     25 C25          0.7726  -1.3880   1.3301 C.2            1 <1>                0.0000
     26 C26          0.6109  -0.0491   1.6979 C.2            1 <1>                0.0000
     27 O27          0.0199   0.2384   2.7267 O.2            1 <1>                0.0000
     28 N28          1.1222   0.9339   0.9026 N.am           1 <1>                0.0000
     29 H29         -3.0603   4.8468   2.3035 H              1 <1>                0.0000
     30 H30         -3.5536   3.1775   2.6758 H              1 <1>                0.0000
     31 H31         -3.5655   4.4153   3.9549 H              1 <1>                0.0000
     32 H32         -1.0977   4.6003   3.7988 H              1 <1>                0.0000
     33 H33         -1.5910   2.9310   4.1710 H              1 <1>                0.0000
     34 H34         -1.3809   3.1926   1.3667 H              1 <1>                0.0000
     35 H35          2.6162   4.8901   0.6437 H              1 <1>                0.0000
     36 H36          1.6116   4.9414  -0.8248 H              1 <1>                0.0000
     37 H37          0.8424   4.9494   0.7804 H              1 <1>                0.0000
     38 H38          2.5986  -3.2179  -0.7445 H              1 <1>                0.0000
     39 H39          1.5958  -3.7581   0.6233 H              1 <1>                0.0000
     40 H40         -0.7024  -4.3478   0.3124 H              1 <1>                0.0000
     41 H41         -2.4927  -4.9869  -1.2516 H              1 <1>                0.0000
     42 H42         -2.2617  -4.5018  -3.6543 H              1 <1>                0.0000
     43 H43          0.3777  -2.1794   1.9498 H              1 <1>                0.0000
@<TRIPOS>BOND
    1    1    2 1     
    2    1   29 1     
    3    1   30 1     
    4    1   31 1     
    5    2    3 1     
    6    2   32 1     
    7    2   33 1     
    8    3    4 am    
    9    3   34 1     
   10    4    5 2     
   11    4    6 1     
   12    6   28 1     
   13    6    7 2     
   14    7    8 1     
   15    7    9 1     
   16    8   35 1     
   17    8   36 1     
   18    8   37 1     
   19    9   10 1     
   20   10   28 1     
   21   10   11 2     
   22   11   12 1     
   23   12   13 1     
   24   12   25 2     
   25   13   14 1     
   26   13   38 1     
   27   13   39 1     
   28   14   19 ar    
   29   14   15 ar    
   30   15   16 ar    
   31   15   40 1     
   32   16   17 ar    
   33   16   41 1     
   34   17   18 ar    
   35   17   42 1     
   36   18   19 ar    
   37   18   21 1     
   38   19   20 1     
   39   21   22 1     
   40   21   23 1     
   41   21   24 1     
   42   25   26 1     
   43   25   43 1     
   44   26   27 2     
   45   26   28 am    
@<TRIPOS>SUBSTRUCTURE
      1 ****           1
@<TRIPOS>SET
DONOR_HYDROGENS      STATIC     ATOMS    <user>   **** ""
1 34
ATOM$RED        STATIC     ATOMS    COLORGROUP SYSTEM
1 34
