#       Name:                69B
#       Creating user name   gbret
#       Creation time:       Fri Sep  9 02:08:05 2016


#       File generated by GOLD software.
#

@<TRIPOS>MOLECULE
69B
    48    52     1
SMALL
NO_CHARGES


@<TRIPOS>ATOM
      1 C1           1.4029   3.4841  -1.7899 C.3            1 <1>                0.0000
      2 C2           1.4237   1.9542  -1.7983 C.3            1 <1>                0.0000
      3 C3           2.1176   1.4658  -3.0668 C.3            1 <1>                0.0000
      4 C4           3.6097   1.6237  -2.9405 C.2            1 <1>                0.0000
      5 O5           4.1794   2.5276  -3.5145 O.2            1 <1>                0.0000
      6 N6           4.3079   0.7520  -2.1834 N.am           1 <1>                0.0000
      7 C7           3.6015  -0.2342  -1.4776 C.ar           1 <1>                0.0000
      8 C8           3.9963  -1.5610  -1.5408 C.ar           1 <1>                0.0000
      9 C9           3.2836  -2.5309  -0.8576 C.ar           1 <1>                0.0000
     10 C10          2.1758  -2.1849  -0.1102 C.ar           1 <1>                0.0000
     11 C11          1.7725  -0.8530  -0.0317 C.ar           1 <1>                0.0000
     12 C12          0.5819  -0.4807   0.7709 C.ar           1 <1>                0.0000
     13 C13          0.6640   0.5668   1.6969 C.ar           1 <1>                0.0000
     14 C14         -0.4200   0.9227   2.4431 C.ar           1 <1>                0.0000
     15 C15         -1.6279   0.2437   2.2916 C.ar           1 <1>                0.0000
     16 N16         -2.8600   0.3637   2.8808 N.pl3          1 <1>                0.0000
     17 C17         -3.2168   1.3403   3.9129 C.3            1 <1>                0.0000
     18 N18         -3.7217  -0.5953   2.3391 N.2            1 <1>                0.0000
     19 C19         -3.0955  -1.3060   1.4453 C.2            1 <1>                0.0000
     20 C20         -3.6816  -2.4362   0.6391 C.3            1 <1>                0.0000
     21 C21         -5.0796  -2.9263   1.0219 C.3            1 <1>                0.0000
     22 C22         -4.8773  -2.1165  -0.2604 C.3            1 <1>                0.0000
     23 C23         -1.7242  -0.8117   1.3638 C.ar           1 <1>                0.0000
     24 C24         -0.6099  -1.1668   0.5979 C.ar           1 <1>                0.0000
     25 C25          2.4954   0.1298  -0.7132 C.ar           1 <1>                0.0000
     26 N26          2.1333   1.4724  -0.6095 N.3            1 <1>                0.0000
     27 H27          2.4255   3.8614  -1.7976 H              1 <1>                0.0000
     28 H28          0.8757   3.8451  -2.6729 H              1 <1>                0.0000
     29 H29          0.8927   3.8356  -0.8931 H              1 <1>                0.0000
     30 H30          0.4001   1.5798  -1.7836 H              1 <1>                0.0000
     31 H31          1.8783   0.4145  -3.2269 H              1 <1>                0.0000
     32 H32          1.7641   2.0474  -3.9182 H              1 <1>                0.0000
     33 H33          5.2748   0.8055  -2.1285 H              1 <1>                0.0000
     34 H34          4.8614  -1.8388  -2.1246 H              1 <1>                0.0000
     35 H35          3.5955  -3.5635  -0.9098 H              1 <1>                0.0000
     36 H36          1.6201  -2.9480   0.4146 H              1 <1>                0.0000
     37 H37          1.5961   1.0980   1.8215 H              1 <1>                0.0000
     38 H38         -0.3426   1.7324   3.1535 H              1 <1>                0.0000
     39 H39         -3.5889   2.2492   3.4399 H              1 <1>                0.0000
     40 H40         -3.9909   0.9225   4.5564 H              1 <1>                0.0000
     41 H41         -2.3359   1.5760   4.5101 H              1 <1>                0.0000
     42 H42         -2.9678  -3.1788   0.2824 H              1 <1>                0.0000
     43 H43         -5.2857  -3.9915   0.9172 H              1 <1>                0.0000
     44 H44         -5.5753  -2.4312   1.8569 H              1 <1>                0.0000
     45 H45         -5.2399  -1.0886  -0.2690 H              1 <1>                0.0000
     46 H46         -4.9503  -2.6489  -1.2087 H              1 <1>                0.0000
     47 H47         -0.6762  -1.9710  -0.1200 H              1 <1>                0.0000
     48 H48          2.9367   2.0492  -0.4095 H              1 <1>                0.0000
@<TRIPOS>BOND
    1    1    2 1     
    2    1   27 1     
    3    1   28 1     
    4    1   29 1     
    5    2   26 1     
    6    2    3 1     
    7    2   30 1     
    8    3    4 1     
    9    3   31 1     
   10    3   32 1     
   11    4    5 2     
   12    4    6 am    
   13    6    7 1     
   14    6   33 1     
   15    7   25 ar    
   16    7    8 ar    
   17    8    9 ar    
   18    8   34 1     
   19    9   10 ar    
   20    9   35 1     
   21   10   11 ar    
   22   10   36 1     
   23   11   12 1     
   24   11   25 ar    
   25   12   24 ar    
   26   12   13 ar    
   27   13   14 ar    
   28   13   37 1     
   29   14   15 ar    
   30   14   38 1     
   31   15   23 ar    
   32   15   16 1     
   33   16   17 1     
   34   16   18 1     
   35   17   39 1     
   36   17   40 1     
   37   17   41 1     
   38   18   19 2     
   39   19   20 1     
   40   19   23 1     
   41   20   22 1     
   42   20   21 1     
   43   20   42 1     
   44   21   22 1     
   45   21   43 1     
   46   21   44 1     
   47   22   45 1     
   48   22   46 1     
   49   23   24 ar    
   50   24   47 1     
   51   25   26 1     
   52   26   48 1     
@<TRIPOS>SUBSTRUCTURE
      1 ****           1
@<TRIPOS>SET
DONOR_HYDROGENS      STATIC     ATOMS    <user>   **** ""
2 33 48
ATOM$RED        STATIC     ATOMS    COLORGROUP SYSTEM
2 33 48
