#       Name:                69P
#       Creating user name   gbret
#       Creation time:       Fri Sep  9 02:08:29 2016


#       File generated by GOLD software.
#

@<TRIPOS>MOLECULE
69P
    28    30     1
SMALL
NO_CHARGES


@<TRIPOS>ATOM
      1 C1          -2.7171   0.2238   1.2722 C.3            1 <1>                0.0000
      2 C2          -1.2816   0.7537   1.2613 C.3            1 <1>                0.0000
      3 N3          -0.5902   0.2625   0.0609 N.3            1 <1>                0.0000
      4 C4          -0.5841  -1.2068   0.0265 C.3            1 <1>                0.0000
      5 C5          -2.0255  -1.7205   0.0476 C.3            1 <1>                0.0000
      6 N6          -2.6972  -1.2449   1.2641 N.4            1 <1>                0.0000
      7 H7          -2.1991  -1.5787   2.0756 H              1 <1>                0.0000
      8 H8          -3.6438  -1.5938   1.2837 H              1 <1>                0.0000
      9 C9           0.6970   0.7656  -0.0107 C.ar           1 <1>                0.0000
     10 N10          1.1637   1.5766   0.9332 N.ar           1 <1>                0.0000
     11 C11          2.3905   2.0614   0.8731 C.ar           1 <1>                0.0000
     12 N12          3.2156   1.7758  -0.1121 N.ar           1 <1>                0.0000
     13 C13          2.8373   0.9732  -1.1014 C.ar           1 <1>                0.0000
     14 N14          3.4328   0.4911  -2.2395 N.pl3          1 <1>                0.0000
     15 H15          4.3352   0.6818  -2.5400 H              1 <1>                0.0000
     16 C16          2.5241  -0.3056  -2.8702 C.2            1 <1>                0.0000
     17 N17          1.4149  -0.3395  -2.1903 N.2            1 <1>                0.0000
     18 C18          1.5429   0.4264  -1.0801 C.ar           1 <1>                0.0000
     19 H19         -3.2274   0.5753   2.1690 H              1 <1>                0.0000
     20 H20         -3.2444   0.5849   0.3891 H              1 <1>                0.0000
     21 H21         -1.2962   1.8435   1.2523 H              1 <1>                0.0000
     22 H22         -0.7581   0.4040   2.1512 H              1 <1>                0.0000
     23 H23         -0.0900  -1.5472  -0.8834 H              1 <1>                0.0000
     24 H24         -0.0492  -1.5887   0.8960 H              1 <1>                0.0000
     25 H25         -2.5562  -1.3495  -0.8292 H              1 <1>                0.0000
     26 H26         -2.0229  -2.8104   0.0364 H              1 <1>                0.0000
     27 H27          2.7295   2.7170   1.6615 H              1 <1>                0.0000
     28 H28          2.6986  -0.8306  -3.7977 H              1 <1>                0.0000
@<TRIPOS>BOND
    1    1    6 1     
    2    1    2 1     
    3    1   19 1     
    4    1   20 1     
    5    2    3 1     
    6    2   21 1     
    7    2   22 1     
    8    3    4 1     
    9    3    9 1     
   10    4    5 1     
   11    4   23 1     
   12    4   24 1     
   13    5    6 1     
   14    5   25 1     
   15    5   26 1     
   16    6    7 1     
   17    6    8 1     
   18    9   18 ar    
   19    9   10 ar    
   20   10   11 ar    
   21   11   12 ar    
   22   11   27 1     
   23   12   13 ar    
   24   13   18 ar    
   25   13   14 1     
   26   14   15 1     
   27   14   16 1     
   28   16   17 2     
   29   16   28 1     
   30   17   18 1     
@<TRIPOS>SUBSTRUCTURE
      1 ****           1
@<TRIPOS>SET
DONOR_HYDROGENS      STATIC     ATOMS    <user>   **** ""
3 7 8 15
ATOM$RED        STATIC     ATOMS    COLORGROUP SYSTEM
3 7 8 15
