#       Name:                6AF
#       Creating user name   gbret
#       Creation time:       Fri Sep  9 02:09:31 2016


#       File generated by GOLD software.
#

@<TRIPOS>MOLECULE
6AF
    47    49     1
SMALL
NO_CHARGES


@<TRIPOS>ATOM
      1 C1           6.0972   2.3883   1.0790 C.3            1 <1>                0.0000
      2 C2           6.3658   0.9006   0.8434 C.3            1 <1>                0.0000
      3 O3           7.1836   0.3912   1.8987 O.3            1 <1>                0.0000
      4 C4           5.0381   0.1409   0.8149 C.3            1 <1>                0.0000
      5 C5           5.3118  -1.3603   0.7043 C.3            1 <1>                0.0000
      6 O6           4.3121   0.4054   2.0170 O.3            1 <1>                0.0000
      7 C7           2.9594   0.3736   1.9385 C.ar           1 <1>                0.0000
      8 N8           2.3582   0.1011   0.7869 N.ar           1 <1>                0.0000
      9 C9           1.0365   0.0686   0.7061 C.ar           1 <1>                0.0000
     10 N10          0.4410  -0.2196  -0.5113 N.pl3          1 <1>                0.0000
     11 C11         -0.9487  -0.1448  -0.6449 C.ar           1 <1>                0.0000
     12 C12         -1.6543   0.8742  -0.0180 C.ar           1 <1>                0.0000
     13 C13         -3.0270   0.9455  -0.1524 C.ar           1 <1>                0.0000
     14 C14         -3.6990   0.0036  -0.9097 C.ar           1 <1>                0.0000
     15 C15         -2.9995  -1.0125  -1.5348 C.ar           1 <1>                0.0000
     16 C16         -1.6261  -1.0859  -1.4096 C.ar           1 <1>                0.0000
     17 S17         -5.4504   0.0979  -1.0781 S.o2           1 <1>                0.0000
     18 N18         -6.0803  -0.7381  -0.0127 N.pl3          1 <1>                0.0000
     19 O19         -5.8464   1.4480  -0.8794 O.2            1 <1>                0.0000
     20 C20         -5.9066  -0.5948  -2.6913 C.3            1 <1>                0.0000
     21 C21         -6.6730  -1.9190  -2.7003 C.3            1 <1>                0.0000
     22 C22         -7.3923  -0.6164  -3.0563 C.3            1 <1>                0.0000
     23 N23          0.2697   0.3044   1.7604 N.ar           1 <1>                0.0000
     24 C24          0.8028   0.5828   2.9403 C.ar           1 <1>                0.0000
     25 C25          2.1795   0.6211   3.0679 C.ar           1 <1>                0.0000
     26 Br26         2.9857   1.0136   4.7328 Br             1 <1>                0.0000
     27 H27          7.0431   2.9296   1.0993 H              1 <1>                0.0000
     28 H28          5.4734   2.7769   0.2740 H              1 <1>                0.0000
     29 H29          5.5837   2.5184   2.0316 H              1 <1>                0.0000
     30 H30          6.8793   0.7706  -0.1093 H              1 <1>                0.0000
     31 H31          6.7885   0.4742   2.7775 H              1 <1>                0.0000
     32 H32          4.4509   0.4674  -0.0434 H              1 <1>                0.0000
     33 H33          4.3659  -1.9016   0.6840 H              1 <1>                0.0000
     34 H34          5.8655  -1.5621  -0.2126 H              1 <1>                0.0000
     35 H35          5.8989  -1.6869   1.5626 H              1 <1>                0.0000
     36 H36          0.9883  -0.4733  -1.2710 H              1 <1>                0.0000
     37 H37         -1.1302   1.6097   0.5742 H              1 <1>                0.0000
     38 H38         -3.5762   1.7375   0.3349 H              1 <1>                0.0000
     39 H39         -3.5274  -1.7467  -2.1253 H              1 <1>                0.0000
     40 H40         -1.0804  -1.8795  -1.8984 H              1 <1>                0.0000
     41 H41         -5.9209  -1.6946   0.0109 H              1 <1>                0.0000
     42 H42         -5.1930  -0.4205  -3.4966 H              1 <1>                0.0000
     43 H43         -6.4636  -2.6162  -3.5116 H              1 <1>                0.0000
     44 H44         -6.9031  -2.3739  -1.7369 H              1 <1>                0.0000
     45 H45         -8.0955  -0.2143  -2.3270 H              1 <1>                0.0000
     46 H46         -7.6561  -0.4566  -4.1017 H              1 <1>                0.0000
     47 H47          0.1697   0.7739   3.7942 H              1 <1>                0.0000
@<TRIPOS>BOND
    1    1    2 1     
    2    1   27 1     
    3    1   28 1     
    4    1   29 1     
    5    2    3 1     
    6    2    4 1     
    7    2   30 1     
    8    3   31 1     
    9    4    5 1     
   10    4    6 1     
   11    4   32 1     
   12    5   33 1     
   13    5   34 1     
   14    5   35 1     
   15    6    7 1     
   16    7   25 ar    
   17    7    8 ar    
   18    8    9 ar    
   19    9   10 1     
   20    9   23 ar    
   21   10   11 1     
   22   10   36 1     
   23   11   16 ar    
   24   11   12 ar    
   25   12   13 ar    
   26   12   37 1     
   27   13   14 ar    
   28   13   38 1     
   29   14   15 ar    
   30   14   17 1     
   31   15   16 ar    
   32   15   39 1     
   33   16   40 1     
   34   17   18 1     
   35   17   19 2     
   36   17   20 1     
   37   18   41 1     
   38   20   22 1     
   39   20   21 1     
   40   20   42 1     
   41   21   22 1     
   42   21   43 1     
   43   21   44 1     
   44   22   45 1     
   45   22   46 1     
   46   23   24 ar    
   47   24   25 ar    
   48   24   47 1     
   49   25   26 1     
@<TRIPOS>SUBSTRUCTURE
      1 ****           1
@<TRIPOS>SET
DONOR_HYDROGENS      STATIC     ATOMS    <user>   **** ""
3 31 36 41
ATOM$RED        STATIC     ATOMS    COLORGROUP SYSTEM
3 31 36 41
