#       Name:                6HI
#       Creating user name   gbret
#       Creation time:       Fri Sep  9 02:18:40 2016


#       File generated by GOLD software.
#

@<TRIPOS>MOLECULE
6HI
    67    69     1
SMALL
NO_CHARGES


@<TRIPOS>ATOM
      1 C1           2.8504   0.8865   0.6256 C.3            1 <1>                0.0000
      2 C2           1.8941   2.0398   0.3153 C.3            1 <1>                0.0000
      3 C3           2.3658   2.7685  -0.9447 C.3            1 <1>                0.0000
      4 N4           0.5454   1.5108   0.0974 N.pl3          1 <1>                0.0000
      5 C5           0.1972   0.5407  -0.7780 C.2            1 <1>                0.0000
      6 C6           1.1218  -0.1986  -1.7106 C.3            1 <1>                0.0000
      7 C7           1.5454  -1.5204  -1.0668 C.3            1 <1>                0.0000
      8 C8           2.4978  -2.2630  -2.0062 C.3            1 <1>                0.0000
      9 O9           3.7038  -1.5108  -2.1540 O.3            1 <1>                0.0000
     10 C10          2.8230  -3.6382  -1.4199 C.3            1 <1>                0.0000
     11 C11          3.6738  -4.4290  -2.4159 C.3            1 <1>                0.0000
     12 O12          4.9365  -3.7812  -2.5834 O.3            1 <1>                0.0000
     13 C13          3.8945  -5.8469  -1.8851 C.3            1 <1>                0.0000
     14 C14          4.6268  -6.6622  -2.9195 C.2            1 <1>                0.0000
     15 O15          4.9428  -6.1561  -3.9827 O.co2          1 <1>                0.0000
     16 O16          4.9031  -7.8279  -2.6932 O.co2          1 <1>                0.0000
     17 C17         -1.1518   0.3569  -0.6566 C.2            1 <1>                0.0000
     18 N18         -1.6030   1.2036   0.2765 N.2            1 <1>                0.0000
     19 C19         -0.5926   1.9025   0.7456 C.2            1 <1>                0.0000
     20 C20         -0.6751   2.9416   1.7882 C.2            1 <1>                0.0000
     21 O21          0.3085   3.5982   2.0714 O.2            1 <1>                0.0000
     22 N22         -1.8406   3.1638   2.4275 N.am           1 <1>                0.0000
     23 C23         -1.9226   4.1964   3.4635 C.3            1 <1>                0.0000
     24 C24         -3.3236   4.2427   4.0168 C.ar           1 <1>                0.0000
     25 C25         -4.2683   5.0687   3.4367 C.ar           1 <1>                0.0000
     26 C26         -5.5534   5.1120   3.9432 C.ar           1 <1>                0.0000
     27 C27         -5.8947   4.3275   5.0318 C.ar           1 <1>                0.0000
     28 F28         -7.1508   4.3687   5.5275 F              1 <1>                0.0000
     29 C29         -4.9478   3.5003   5.6117 C.ar           1 <1>                0.0000
     30 C30         -3.6647   3.4550   5.1004 C.ar           1 <1>                0.0000
     31 C31         -1.9727  -0.6117  -1.4253 C.ar           1 <1>                0.0000
     32 C32         -2.9459  -1.3706  -0.7786 C.ar           1 <1>                0.0000
     33 C33         -3.7068  -2.2700  -1.4971 C.ar           1 <1>                0.0000
     34 C34         -3.5041  -2.4190  -2.8595 C.ar           1 <1>                0.0000
     35 F35         -4.2516  -3.3003  -3.5593 F              1 <1>                0.0000
     36 C36         -2.5375  -1.6664  -3.5064 C.ar           1 <1>                0.0000
     37 C37         -1.7761  -0.7605  -2.7966 C.ar           1 <1>                0.0000
     38 H38          3.8397   1.2852   0.8502 H              1 <1>                0.0000
     39 H39          2.4797   0.3286   1.4856 H              1 <1>                0.0000
     40 H40          2.9129   0.2241  -0.2377 H              1 <1>                0.0000
     41 H41          1.8802   2.7360   1.1539 H              1 <1>                0.0000
     42 H42          2.2933   2.0979  -1.8009 H              1 <1>                0.0000
     43 H43          1.7387   3.6437  -1.1145 H              1 <1>                0.0000
     44 H44          3.4015   3.0830  -0.8162 H              1 <1>                0.0000
     45 H45          0.6058  -0.4006  -2.6492 H              1 <1>                0.0000
     46 H46          2.0047   0.4103  -1.9050 H              1 <1>                0.0000
     47 H47          2.0505  -1.3190  -0.1222 H              1 <1>                0.0000
     48 H48          0.6636  -2.1344  -0.8837 H              1 <1>                0.0000
     49 H49          2.0246  -2.3860  -2.9804 H              1 <1>                0.0000
     50 H50          4.1789  -1.3624  -1.3249 H              1 <1>                0.0000
     51 H51          3.3751  -3.5147  -0.4883 H              1 <1>                0.0000
     52 H52          1.8966  -4.1782  -1.2244 H              1 <1>                0.0000
     53 H53          3.1596  -4.4763  -3.3758 H              1 <1>                0.0000
     54 H54          5.4501  -3.7038  -1.7677 H              1 <1>                0.0000
     55 H55          4.4859  -5.8045  -0.9705 H              1 <1>                0.0000
     56 H56          2.9306  -6.3097  -1.6733 H              1 <1>                0.0000
     57 H57         -2.6252   2.6400   2.2016 H              1 <1>                0.0000
     58 H58         -1.2227   3.9625   4.2657 H              1 <1>                0.0000
     59 H59         -1.6702   5.1649   3.0319 H              1 <1>                0.0000
     60 H60         -4.0019   5.6805   2.5875 H              1 <1>                0.0000
     61 H61         -6.2911   5.7579   3.4903 H              1 <1>                0.0000
     62 H62         -5.2128   2.8881   6.4611 H              1 <1>                0.0000
     63 H63         -2.9260   2.8096   5.5524 H              1 <1>                0.0000
     64 H64         -3.1044  -1.2554   0.2835 H              1 <1>                0.0000
     65 H65         -4.4612  -2.8590  -0.9966 H              1 <1>                0.0000
     66 H66         -2.3825  -1.7858  -4.5685 H              1 <1>                0.0000
     67 H67         -1.0227  -0.1742  -3.3017 H              1 <1>                0.0000
@<TRIPOS>BOND
    1    1    2 1     
    2    1   38 1     
    3    1   39 1     
    4    1   40 1     
    5    2    3 1     
    6    2    4 1     
    7    2   41 1     
    8    3   42 1     
    9    3   43 1     
   10    3   44 1     
   11    4   19 1     
   12    4    5 1     
   13    5    6 1     
   14    5   17 2     
   15    6    7 1     
   16    6   45 1     
   17    6   46 1     
   18    7    8 1     
   19    7   47 1     
   20    7   48 1     
   21    8    9 1     
   22    8   10 1     
   23    8   49 1     
   24    9   50 1     
   25   10   11 1     
   26   10   51 1     
   27   10   52 1     
   28   11   12 1     
   29   11   13 1     
   30   11   53 1     
   31   12   54 1     
   32   13   14 1     
   33   13   55 1     
   34   13   56 1     
   35   14   15 ar    
   36   14   16 ar    
   37   17   18 1     
   38   17   31 1     
   39   18   19 2     
   40   19   20 1     
   41   20   21 2     
   42   20   22 am    
   43   22   23 1     
   44   22   57 1     
   45   23   24 1     
   46   23   58 1     
   47   23   59 1     
   48   24   30 ar    
   49   24   25 ar    
   50   25   26 ar    
   51   25   60 1     
   52   26   27 ar    
   53   26   61 1     
   54   27   28 1     
   55   27   29 ar    
   56   29   30 ar    
   57   29   62 1     
   58   30   63 1     
   59   31   37 ar    
   60   31   32 ar    
   61   32   33 ar    
   62   32   64 1     
   63   33   34 ar    
   64   33   65 1     
   65   34   35 1     
   66   34   36 ar    
   67   36   37 ar    
   68   36   66 1     
   69   37   67 1     
@<TRIPOS>SUBSTRUCTURE
      1 ****           1
@<TRIPOS>SET
DONOR_HYDROGENS      STATIC     ATOMS    <user>   **** ""
3 50 54 57
ATOM$RED        STATIC     ATOMS    COLORGROUP SYSTEM
3 50 54 57
