#       Name:                6LQ
#       Creating user name   gbret
#       Creation time:       Fri Sep  9 02:22:27 2016


#       File generated by GOLD software.
#

@<TRIPOS>MOLECULE
6LQ
    73    77     1
SMALL
NO_CHARGES


@<TRIPOS>ATOM
      1 C1          -6.7354   2.8943  -2.0315 C.3            1 <1>                0.0000
      2 N2          -6.7243   1.4253  -2.0273 N.4            1 <1>                0.0000
      3 H3          -7.6727   1.0831  -1.9868 H              1 <1>                0.0000
      4 C4          -6.0824   0.9389  -3.2550 C.3            1 <1>                0.0000
      5 C5          -6.1723  -0.5899  -3.3060 C.3            1 <1>                0.0000
      6 N6          -5.5985  -1.1324  -2.0649 N.pl3          1 <1>                0.0000
      7 C7          -6.0696  -0.5817  -0.7847 C.3            1 <1>                0.0000
      8 C8          -5.9827   0.9466  -0.8538 C.3            1 <1>                0.0000
      9 S9          -4.4551  -2.3296  -2.1076 S.o2           1 <1>                0.0000
     10 O10         -4.5202  -2.9916  -0.8519 O.2            1 <1>                0.0000
     11 O11         -4.6222  -3.0000  -3.3493 O.2            1 <1>                0.0000
     12 C12         -2.8795  -1.5437  -2.1746 C.ar           1 <1>                0.0000
     13 C13         -2.3148  -1.2352  -3.3991 C.ar           1 <1>                0.0000
     14 C14         -1.0809  -0.6197  -3.4574 C.ar           1 <1>                0.0000
     15 C15         -0.4040  -0.3086  -2.2799 C.ar           1 <1>                0.0000
     16 C16         -0.9777  -0.6212  -1.0491 C.ar           1 <1>                0.0000
     17 C17         -2.2143  -1.2324  -1.0024 C.ar           1 <1>                0.0000
     18 C18          0.9231   0.3528  -2.3363 C.ar           1 <1>                0.0000
     19 C19          1.4997   0.6728  -3.5653 C.ar           1 <1>                0.0000
     20 N20          2.6767   1.2598  -3.6311 N.ar           1 <1>                0.0000
     21 C21          3.3649   1.5730  -2.5435 C.ar           1 <1>                0.0000
     22 N22          4.5960   2.1889  -2.6659 N.pl3          1 <1>                0.0000
     23 C23          2.8542   1.2849  -1.2656 C.ar           1 <1>                0.0000
     24 C24          1.6050   0.6665  -1.1610 C.ar           1 <1>                0.0000
     25 C25          3.6214   1.6336  -0.0560 C.2            1 <1>                0.0000
     26 O26          4.6618   2.2555  -0.1540 O.2            1 <1>                0.0000
     27 N27          3.1697   1.2630   1.1586 N.am           1 <1>                0.0000
     28 C28          3.8332   1.6928   2.3126 C.ar           1 <1>                0.0000
     29 C29          4.5944   2.8546   2.2965 C.ar           1 <1>                0.0000
     30 N30          5.2205   3.2629   3.3819 N.ar           1 <1>                0.0000
     31 C31          5.1524   2.5941   4.5166 C.ar           1 <1>                0.0000
     32 C32          4.4151   1.4286   4.6111 C.ar           1 <1>                0.0000
     33 C33          3.7357   0.9654   3.4960 C.ar           1 <1>                0.0000
     34 C34          2.9209  -0.3008   3.5592 C.3            1 <1>                0.0000
     35 N35          3.6926  -1.4090   2.9810 N.4            1 <1>                0.0000
     36 H36          3.9973  -1.1629   2.0511 H              1 <1>                0.0000
     37 C37          2.8521  -2.6240   2.9240 C.3            1 <1>                0.0000
     38 C38          3.8240  -3.7919   3.2261 C.3            1 <1>                0.0000
     39 C39          4.7549  -3.1570   4.2925 C.3            1 <1>                0.0000
     40 C40          4.8653  -1.6923   3.8286 C.3            1 <1>                0.0000
     41 H41         -5.7114   3.2652  -2.0752 H              1 <1>                0.0000
     42 H42         -7.2885   3.2509  -2.9005 H              1 <1>                0.0000
     43 H43         -7.2147   3.2566  -1.1221 H              1 <1>                0.0000
     44 H44         -6.5892   1.3620  -4.1223 H              1 <1>                0.0000
     45 H45         -5.0353   1.2418  -3.2622 H              1 <1>                0.0000
     46 H46         -7.2160  -0.8928  -3.3901 H              1 <1>                0.0000
     47 H47         -5.6099  -0.9615  -4.1626 H              1 <1>                0.0000
     48 H48         -7.1030  -0.8838  -0.6141 H              1 <1>                0.0000
     49 H49         -5.4394  -0.9480   0.0257 H              1 <1>                0.0000
     50 H50         -4.9383   1.2480  -0.9336 H              1 <1>                0.0000
     51 H51         -6.4172   1.3766   0.0486 H              1 <1>                0.0000
     52 H52         -2.8403  -1.4768  -4.3111 H              1 <1>                0.0000
     53 H53         -0.6406  -0.3799  -4.4140 H              1 <1>                0.0000
     54 H54         -0.4574  -0.3823  -0.1334 H              1 <1>                0.0000
     55 H55         -2.6601  -1.4748  -0.0490 H              1 <1>                0.0000
     56 H56          0.9727   0.4351  -4.4775 H              1 <1>                0.0000
     57 H57          4.9525   2.3900  -3.5454 H              1 <1>                0.0000
     58 H58          5.1037   2.4202  -1.8724 H              1 <1>                0.0000
     59 H59          1.1825   0.4308  -0.1954 H              1 <1>                0.0000
     60 H60          2.3845   0.6983   1.2325 H              1 <1>                0.0000
     61 H61          4.6742   3.4289   1.3854 H              1 <1>                0.0000
     62 H62          5.6802   2.9620   5.3840 H              1 <1>                0.0000
     63 H63          4.3659   0.8876   5.5445 H              1 <1>                0.0000
     64 H64          2.6819  -0.5276   4.5982 H              1 <1>                0.0000
     65 H65          1.9980  -0.1674   2.9948 H              1 <1>                0.0000
     66 H66          2.0674  -2.5784   3.6790 H              1 <1>                0.0000
     67 H67          2.4181  -2.7388   1.9307 H              1 <1>                0.0000
     68 H68          3.2891  -4.6490   3.6352 H              1 <1>                0.0000
     69 H69          4.3855  -4.0730   2.3352 H              1 <1>                0.0000
     70 H70          4.3019  -3.2135   5.2823 H              1 <1>                0.0000
     71 H71          5.7325  -3.6391   4.2868 H              1 <1>                0.0000
     72 H72          5.7790  -1.5543   3.2505 H              1 <1>                0.0000
     73 H73          4.8673  -1.0287   4.6933 H              1 <1>                0.0000
@<TRIPOS>BOND
    1    1    2 1     
    2    1   41 1     
    3    1   42 1     
    4    1   43 1     
    5    2    3 1     
    6    2    8 1     
    7    2    4 1     
    8    4    5 1     
    9    4   44 1     
   10    4   45 1     
   11    5    6 1     
   12    5   46 1     
   13    5   47 1     
   14    6    7 1     
   15    6    9 1     
   16    7    8 1     
   17    7   48 1     
   18    7   49 1     
   19    8   50 1     
   20    8   51 1     
   21    9   10 2     
   22    9   11 2     
   23    9   12 1     
   24   12   17 ar    
   25   12   13 ar    
   26   13   14 ar    
   27   13   52 1     
   28   14   15 ar    
   29   14   53 1     
   30   15   16 ar    
   31   15   18 1     
   32   16   17 ar    
   33   16   54 1     
   34   17   55 1     
   35   18   24 ar    
   36   18   19 ar    
   37   19   20 ar    
   38   19   56 1     
   39   20   21 ar    
   40   21   22 1     
   41   21   23 ar    
   42   22   57 1     
   43   22   58 1     
   44   23   24 ar    
   45   23   25 1     
   46   24   59 1     
   47   25   26 2     
   48   25   27 am    
   49   27   28 1     
   50   27   60 1     
   51   28   33 ar    
   52   28   29 ar    
   53   29   30 ar    
   54   29   61 1     
   55   30   31 ar    
   56   31   32 ar    
   57   31   62 1     
   58   32   33 ar    
   59   32   63 1     
   60   33   34 1     
   61   34   35 1     
   62   34   64 1     
   63   34   65 1     
   64   35   36 1     
   65   35   40 1     
   66   35   37 1     
   67   37   38 1     
   68   37   66 1     
   69   37   67 1     
   70   38   39 1     
   71   38   68 1     
   72   38   69 1     
   73   39   40 1     
   74   39   70 1     
   75   39   71 1     
   76   40   72 1     
   77   40   73 1     
@<TRIPOS>SUBSTRUCTURE
      1 ****           1
@<TRIPOS>SET
DONOR_HYDROGENS      STATIC     ATOMS    <user>   **** ""
5 3 57 58 60 36
ATOM$RED        STATIC     ATOMS    COLORGROUP SYSTEM
5 3 57 58 60 36
