#       Name:                6OC
#       Creating user name   gbret
#       Creation time:       Fri Sep  9 02:25:06 2016


#       File generated by GOLD software.
#

@<TRIPOS>MOLECULE
6OC
    51    50     1
SMALL
NO_CHARGES


@<TRIPOS>ATOM
      1 C1           2.9547   7.0580  -4.2436 C.3            1 <1>                0.0000
      2 C2           2.9755   5.5281  -4.2520 C.3            1 <1>                0.0000
      3 C3           1.5401   4.9986  -4.2411 C.3            1 <1>                0.0000
      4 C4           1.5608   3.4687  -4.2495 C.3            1 <1>                0.0000
      5 C5           0.1255   2.9391  -4.2387 C.3            1 <1>                0.0000
      6 C6           0.1459   1.4323  -4.2470 C.2            1 <1>                0.0000
      7 C7          -0.4870   0.7635  -3.3151 C.2            1 <1>                0.0000
      8 C8          -0.4665  -0.7433  -3.3234 C.3            1 <1>                0.0000
      9 C9           0.0389  -1.2462  -1.9957 C.2            1 <1>                0.0000
     10 C10         -0.6793  -2.0917  -1.2991 C.2            1 <1>                0.0000
     11 C11         -0.1739  -2.5945   0.0286 C.3            1 <1>                0.0000
     12 O12          1.0424  -1.9220   0.3609 O.3            1 <1>                0.0000
     13 C13         -1.2206  -2.3195   1.1101 C.3            1 <1>                0.0000
     14 C14         -0.7702  -2.9303   2.4121 C.2            1 <1>                0.0000
     15 O15          0.2797  -3.5244   2.4690 O.2            1 <1>                0.0000
     16 C16         -1.6299  -2.7999   3.6429 C.3            1 <1>                0.0000
     17 C17         -0.9479  -3.5030   4.8182 C.3            1 <1>                0.0000
     18 C18         -1.8207  -3.3706   6.0678 C.3            1 <1>                0.0000
     19 C19         -1.1387  -4.0737   7.2431 C.3            1 <1>                0.0000
     20 C20         -1.9984  -3.9433   8.4740 C.2            1 <1>                0.0000
     21 O21         -3.0583  -3.3435   8.4165 O.co2          1 <1>                0.0000
     22 O22         -1.6340  -4.4375   9.5273 O.co2          1 <1>                0.0000
     23 H23          3.9773   7.4353  -4.2513 H              1 <1>                0.0000
     24 H24          2.4275   7.4190  -5.1266 H              1 <1>                0.0000
     25 H25          2.4445   7.4095  -3.3468 H              1 <1>                0.0000
     26 H26          3.4857   5.1766  -5.1488 H              1 <1>                0.0000
     27 H27          3.5027   5.1671  -3.3689 H              1 <1>                0.0000
     28 H28          1.0299   5.3501  -3.3443 H              1 <1>                0.0000
     29 H29          1.0129   5.3596  -5.1242 H              1 <1>                0.0000
     30 H30          2.0710   3.1172  -5.1463 H              1 <1>                0.0000
     31 H31          2.0880   3.1076  -3.3665 H              1 <1>                0.0000
     32 H32         -0.3847   3.2907  -3.3419 H              1 <1>                0.0000
     33 H33         -0.4017   3.3002  -5.1217 H              1 <1>                0.0000
     34 H34          0.6823   0.9038  -5.0211 H              1 <1>                0.0000
     35 H35         -1.0234   1.2920  -2.5410 H              1 <1>                0.0000
     36 H36         -1.4752  -1.1194  -3.4943 H              1 <1>                0.0000
     37 H37          0.1913  -1.0934  -4.1189 H              1 <1>                0.0000
     38 H38          0.9933  -0.9095  -1.6186 H              1 <1>                0.0000
     39 H39         -1.6337  -2.4283  -1.6762 H              1 <1>                0.0000
     40 H40          0.0096  -3.6670  -0.0350 H              1 <1>                0.0000
     41 H41          0.9536  -0.9619   0.4345 H              1 <1>                0.0000
     42 H42         -1.3393  -1.2432   1.2356 H              1 <1>                0.0000
     43 H43         -2.1734  -2.7579   0.8135 H              1 <1>                0.0000
     44 H44         -1.7666  -1.7449   3.8804 H              1 <1>                0.0000
     45 H45         -2.6008  -3.2596   3.4583 H              1 <1>                0.0000
     46 H46         -0.8111  -4.5580   4.5807 H              1 <1>                0.0000
     47 H47          0.0231  -3.0433   5.0028 H              1 <1>                0.0000
     48 H48         -1.9575  -2.3156   6.3053 H              1 <1>                0.0000
     49 H49         -2.7916  -3.8303   5.8832 H              1 <1>                0.0000
     50 H50         -1.0019  -5.1287   7.0056 H              1 <1>                0.0000
     51 H51         -0.1678  -3.6140   7.4277 H              1 <1>                0.0000
@<TRIPOS>BOND
    1    1    2 1     
    2    1   23 1     
    3    1   24 1     
    4    1   25 1     
    5    2    3 1     
    6    2   26 1     
    7    2   27 1     
    8    3    4 1     
    9    3   28 1     
   10    3   29 1     
   11    4    5 1     
   12    4   30 1     
   13    4   31 1     
   14    5    6 1     
   15    5   32 1     
   16    5   33 1     
   17    6    7 2     
   18    6   34 1     
   19    7    8 1     
   20    7   35 1     
   21    8    9 1     
   22    8   36 1     
   23    8   37 1     
   24    9   10 2     
   25    9   38 1     
   26   10   11 1     
   27   10   39 1     
   28   11   12 1     
   29   11   13 1     
   30   11   40 1     
   31   12   41 1     
   32   13   14 1     
   33   13   42 1     
   34   13   43 1     
   35   14   15 2     
   36   14   16 1     
   37   16   17 1     
   38   16   44 1     
   39   16   45 1     
   40   17   18 1     
   41   17   46 1     
   42   17   47 1     
   43   18   19 1     
   44   18   48 1     
   45   18   49 1     
   46   19   20 1     
   47   19   50 1     
   48   19   51 1     
   49   20   21 ar    
   50   20   22 ar    
@<TRIPOS>SUBSTRUCTURE
      1 ****           1
@<TRIPOS>SET
DONOR_HYDROGENS      STATIC     ATOMS    <user>   **** ""
1 41
ATOM$RED        STATIC     ATOMS    COLORGROUP SYSTEM
1 41
