#       Name:                6PB
#       Creating user name   gbret
#       Creation time:       Fri Sep  9 02:26:02 2016


#       File generated by GOLD software.
#

@<TRIPOS>MOLECULE
6PB
    25    27     1
SMALL
NO_CHARGES


@<TRIPOS>ATOM
      1 N1           1.4585   3.8523  -0.0009 N.pl3          1 <1>                0.0000
      2 C2           1.4773   2.4663  -0.0085 C.ar           1 <1>                0.0000
      3 N3           0.3243   1.8119  -0.0065 N.ar           1 <1>                0.0000
      4 C4           0.2906   0.4801  -0.0140 C.ar           1 <1>                0.0000
      5 C5          -1.0023  -0.2445  -0.0121 C.ar           1 <1>                0.0000
      6 C6          -1.1314  -1.4474  -0.7056 C.ar           1 <1>                0.0000
      7 C7          -2.3374  -2.1179  -0.7007 C.ar           1 <1>                0.0000
      8 C8          -3.4177  -1.5992  -0.0095 C.ar           1 <1>                0.0000
      9 C9          -3.2961  -0.4057   0.6807 C.ar           1 <1>                0.0000
     10 Br10        -4.7782   0.2950   1.6230 Br             1 <1>                0.0000
     11 C11         -2.0922   0.2711   0.6874 C.ar           1 <1>                0.0000
     12 C12          1.5003  -0.2188  -0.0241 C.ar           1 <1>                0.0000
     13 N13          1.8616  -1.5491  -0.0336 N.pl3          1 <1>                0.0000
     14 H14          1.2590  -2.3093  -0.0352 H              1 <1>                0.0000
     15 C15          3.2133  -1.5961  -0.0406 C.2            1 <1>                0.0000
     16 N16          3.7048  -0.3883  -0.0361 N.2            1 <1>                0.0000
     17 C17          2.7030   0.5114  -0.0259 C.ar           1 <1>                0.0000
     18 N18          2.6440   1.8453  -0.0230 N.ar           1 <1>                0.0000
     19 H19          2.2918   4.3487  -0.0062 H              1 <1>                0.0000
     20 H20          0.6119   4.3259   0.0057 H              1 <1>                0.0000
     21 H21         -0.2890  -1.8534  -1.2459 H              1 <1>                0.0000
     22 H22         -2.4382  -3.0494  -1.2378 H              1 <1>                0.0000
     23 H23         -4.3597  -2.1274  -0.0089 H              1 <1>                0.0000
     24 H24         -1.9979   1.2023   1.2262 H              1 <1>                0.0000
     25 H25          3.8004  -2.5026  -0.0483 H              1 <1>                0.0000
@<TRIPOS>BOND
    1    1    2 1     
    2    1   19 1     
    3    1   20 1     
    4    2   18 ar    
    5    2    3 ar    
    6    3    4 ar    
    7    4    5 1     
    8    4   12 ar    
    9    5   11 ar    
   10    5    6 ar    
   11    6    7 ar    
   12    6   21 1     
   13    7    8 ar    
   14    7   22 1     
   15    8    9 ar    
   16    8   23 1     
   17    9   10 1     
   18    9   11 ar    
   19   11   24 1     
   20   12   17 ar    
   21   12   13 1     
   22   13   14 1     
   23   13   15 1     
   24   15   16 2     
   25   15   25 1     
   26   16   17 1     
   27   17   18 ar    
@<TRIPOS>SUBSTRUCTURE
      1 ****           1
@<TRIPOS>SET
DONOR_HYDROGENS      STATIC     ATOMS    <user>   **** ""
3 19 20 14
ATOM$RED        STATIC     ATOMS    COLORGROUP SYSTEM
3 19 20 14
