#       Name:                6RL
#       Creating user name   gbret
#       Creation time:       Fri Sep  9 02:27:34 2016


#       File generated by GOLD software.
#

@<TRIPOS>MOLECULE
6RL
    47    49     1
SMALL
NO_CHARGES


@<TRIPOS>ATOM
      1 C1          -0.5603   4.9747  -0.7314 C.3            1 <1>                0.0000
      2 N2          -0.5779   3.5099  -0.7169 N.am           1 <1>                0.0000
      3 C3          -0.6095   2.8307  -1.8803 C.2            1 <1>                0.0000
      4 O4          -0.6230   3.4315  -2.9411 O.2            1 <1>                0.0000
      5 C5          -0.6264   1.4272  -1.8635 C.2            1 <1>                0.0000
      6 C6          -0.6103   0.7773  -0.6607 C.2            1 <1>                0.0000
      7 N7          -0.6257  -0.5932  -0.6146 N.3            1 <1>                0.0000
      8 C8          -1.9801  -1.0957  -0.3509 C.3            1 <1>                0.0000
      9 C9          -1.9346  -2.6137  -0.1620 C.3            1 <1>                0.0000
     10 C10         -1.3662  -3.2637  -1.4265 C.3            1 <1>                0.0000
     11 C11          0.0248  -2.6877  -1.7059 C.3            1 <1>                0.0000
     12 N12          0.5535  -3.2637  -2.9495 N.4            1 <1>                0.0000
     13 H13         -0.0641  -3.0368  -3.7145 H              1 <1>                0.0000
     14 H14          1.4700  -2.8838  -3.1331 H              1 <1>                0.0000
     15 H15          0.6176  -4.2663  -2.8551 H              1 <1>                0.0000
     16 C16         -0.0775  -1.1675  -1.8500 C.3            1 <1>                0.0000
     17 N17         -0.5781   1.5095   0.5012 N.am           1 <1>                0.0000
     18 C18         -0.5606   0.8222   1.7949 C.3            1 <1>                0.0000
     19 C19          0.8612   0.4906   2.1684 C.ar           1 <1>                0.0000
     20 C20          1.9039   0.9453   1.3894 C.ar           1 <1>                0.0000
     21 C21          3.2122   0.6406   1.7315 C.ar           1 <1>                0.0000
     22 F22          4.2301   1.0888   0.9646 F              1 <1>                0.0000
     23 C23          3.4802  -0.1220   2.8582 C.ar           1 <1>                0.0000
     24 C24          2.4458  -0.5819   3.6443 C.ar           1 <1>                0.0000
     25 C25          1.1255  -0.2731   3.3076 C.ar           1 <1>                0.0000
     26 C26          0.0466  -0.7477   4.1208 C.1            1 <1>                0.0000
     27 N27         -0.8093  -1.1242   4.7659 N.1            1 <1>                0.0000
     28 C28         -0.5569   2.8543   0.4578 C.2            1 <1>                0.0000
     29 O29         -0.5285   3.4866   1.4960 O.2            1 <1>                0.0000
     30 H30          0.4714   5.3254  -0.7605 H              1 <1>                0.0000
     31 H31         -1.0916   5.3358  -1.6120 H              1 <1>                0.0000
     32 H32         -1.0474   5.3529   0.1673 H              1 <1>                0.0000
     33 H33         -0.6520   0.8686  -2.7875 H              1 <1>                0.0000
     34 H34         -2.3710  -0.6288   0.5531 H              1 <1>                0.0000
     35 H35         -2.6277  -0.8538  -1.1936 H              1 <1>                0.0000
     36 H36         -1.2981  -2.8557   0.6891 H              1 <1>                0.0000
     37 H37         -2.9422  -2.9883   0.0182 H              1 <1>                0.0000
     38 H38         -1.2915  -4.3412  -1.2802 H              1 <1>                0.0000
     39 H39         -2.0233  -3.0544  -2.2706 H              1 <1>                0.0000
     40 H40          0.6923  -2.9314  -0.8794 H              1 <1>                0.0000
     41 H41         -0.7340  -0.9253  -2.6857 H              1 <1>                0.0000
     42 H42          0.9135  -0.7528  -2.0348 H              1 <1>                0.0000
     43 H43         -0.9947   1.4701   2.5564 H              1 <1>                0.0000
     44 H44         -1.1419  -0.0973   1.7257 H              1 <1>                0.0000
     45 H45          1.7010   1.5396   0.5108 H              1 <1>                0.0000
     46 H46          4.5015  -0.3563   3.1200 H              1 <1>                0.0000
     47 H47          2.6556  -1.1764   4.5212 H              1 <1>                0.0000
@<TRIPOS>BOND
    1    1    2 1     
    2    1   30 1     
    3    1   31 1     
    4    1   32 1     
    5    2   28 am    
    6    2    3 am    
    7    3    4 2     
    8    3    5 1     
    9    5    6 2     
   10    5   33 1     
   11    6    7 1     
   12    6   17 1     
   13    7   16 1     
   14    7    8 1     
   15    8    9 1     
   16    8   34 1     
   17    8   35 1     
   18    9   10 1     
   19    9   36 1     
   20    9   37 1     
   21   10   11 1     
   22   10   38 1     
   23   10   39 1     
   24   11   12 1     
   25   11   16 1     
   26   11   40 1     
   27   12   13 1     
   28   12   14 1     
   29   12   15 1     
   30   16   41 1     
   31   16   42 1     
   32   17   18 1     
   33   17   28 am    
   34   18   19 1     
   35   18   43 1     
   36   18   44 1     
   37   19   25 ar    
   38   19   20 ar    
   39   20   21 ar    
   40   20   45 1     
   41   21   22 1     
   42   21   23 ar    
   43   23   24 ar    
   44   23   46 1     
   45   24   25 ar    
   46   24   47 1     
   47   25   26 1     
   48   26   27 3     
   49   28   29 2     
@<TRIPOS>SUBSTRUCTURE
      1 ****           1
@<TRIPOS>SET
DONOR_HYDROGENS      STATIC     ATOMS    <user>   **** ""
3 13 14 15
ATOM$RED        STATIC     ATOMS    COLORGROUP SYSTEM
3 13 14 15
