#       Name:                6SC
#       Creating user name   gbret
#       Creation time:       Fri Sep  9 02:28:31 2016


#       File generated by GOLD software.
#

@<TRIPOS>MOLECULE
6SC
    38    41     1
SMALL
NO_CHARGES


@<TRIPOS>ATOM
      1 Br1         -2.4760  -5.4110   0.0091 Br             1 <1>                0.0000
      2 C2          -2.5017  -3.5202   0.0195 C.2            1 <1>                0.0000
      3 C3          -3.6327  -2.7160   0.0407 C.2            1 <1>                0.0000
      4 N4          -3.2613  -1.4561   0.0418 N.2            1 <1>                0.0000
      5 N5          -1.8632  -1.3963   0.0212 N.pl3          1 <1>                0.0000
      6 C6          -0.9817  -0.3458   0.0130 C.2            1 <1>                0.0000
      7 N7          -1.4429   0.9543   0.0272 N.pl3          1 <1>                0.0000
      8 C8          -0.4922   2.0689   0.0182 C.3            1 <1>                0.0000
      9 C9          -1.2470   3.3731   0.0372 C.ar           1 <1>                0.0000
     10 C10         -1.6263   3.9908  -1.1448 C.ar           1 <1>                0.0000
     11 C11         -2.3174   5.1863  -1.0882 C.ar           1 <1>                0.0000
     12 N12         -2.6155   5.7388   0.0715 N.ar           1 <1>                0.0000
     13 C13         -2.2709   5.1798   1.2150 C.ar           1 <1>                0.0000
     14 C14         -1.5837   3.9809   1.2370 C.ar           1 <1>                0.0000
     15 C15          0.3587  -0.6046  -0.0091 C.2            1 <1>                0.0000
     16 C16          0.8012  -1.9394  -0.0228 C.2            1 <1>                0.0000
     17 N17         -0.0756  -2.9304  -0.0143 N.2            1 <1>                0.0000
     18 C18         -1.3915  -2.6844   0.0134 C.2            1 <1>                0.0000
     19 C19          2.2530  -2.2368  -0.0473 C.ar           1 <1>                0.0000
     20 C20          3.1807  -1.1959  -0.0510 C.ar           1 <1>                0.0000
     21 C21          4.5311  -1.4790  -0.0734 C.ar           1 <1>                0.0000
     22 C22          4.9650  -2.7925  -0.0926 C.ar           1 <1>                0.0000
     23 C23          4.0493  -3.8294  -0.0896 C.ar           1 <1>                0.0000
     24 C24          2.6964  -3.5586  -0.0610 C.ar           1 <1>                0.0000
     25 H25         -4.6533  -3.0691   0.0538 H              1 <1>                0.0000
     26 H26         -2.3966   1.1304   0.0432 H              1 <1>                0.0000
     27 H27          0.1485   2.0071   0.8979 H              1 <1>                0.0000
     28 H28          0.1204   2.0166  -0.8818 H              1 <1>                0.0000
     29 H29         -1.3844   3.5436  -2.0976 H              1 <1>                0.0000
     30 H30         -2.6164   5.6739  -2.0043 H              1 <1>                0.0000
     31 H31         -2.5324   5.6623   2.1452 H              1 <1>                0.0000
     32 H32         -1.3046   3.5278   2.1768 H              1 <1>                0.0000
     33 H33          1.0714   0.2069  -0.0164 H              1 <1>                0.0000
     34 H34          2.8430  -0.1702  -0.0367 H              1 <1>                0.0000
     35 H35          5.2506  -0.6736  -0.0763 H              1 <1>                0.0000
     36 H36          6.0229  -3.0092  -0.1105 H              1 <1>                0.0000
     37 H37          4.3939  -4.8528  -0.1054 H              1 <1>                0.0000
     38 H38          1.9824  -4.3689  -0.0583 H              1 <1>                0.0000
@<TRIPOS>BOND
    1    1    2 1     
    2    2   18 2     
    3    2    3 1     
    4    3    4 2     
    5    3   25 1     
    6    4    5 1     
    7    5   18 1     
    8    5    6 1     
    9    6    7 1     
   10    6   15 2     
   11    7    8 1     
   12    7   26 1     
   13    8    9 1     
   14    8   27 1     
   15    8   28 1     
   16    9   14 ar    
   17    9   10 ar    
   18   10   11 ar    
   19   10   29 1     
   20   11   12 ar    
   21   11   30 1     
   22   12   13 ar    
   23   13   14 ar    
   24   13   31 1     
   25   14   32 1     
   26   15   16 1     
   27   15   33 1     
   28   16   17 2     
   29   16   19 1     
   30   17   18 1     
   31   19   24 ar    
   32   19   20 ar    
   33   20   21 ar    
   34   20   34 1     
   35   21   22 ar    
   36   21   35 1     
   37   22   23 ar    
   38   22   36 1     
   39   23   24 ar    
   40   23   37 1     
   41   24   38 1     
@<TRIPOS>SUBSTRUCTURE
      1 ****           1
@<TRIPOS>SET
DONOR_HYDROGENS      STATIC     ATOMS    <user>   **** ""
1 26
ATOM$RED        STATIC     ATOMS    COLORGROUP SYSTEM
1 26
