#       Name:                6T0
#       Creating user name   gbret
#       Creation time:       Fri Sep  9 02:28:47 2016


#       File generated by GOLD software.
#

@<TRIPOS>MOLECULE
6T0
    34    36     1
SMALL
NO_CHARGES


@<TRIPOS>ATOM
      1 C1          -0.7764   3.6171  -0.2649 C.3            1 <1>                0.0000
      2 C2          -0.8392   2.1500  -0.6946 C.3            1 <1>                0.0000
      3 C3          -1.7514   2.0147  -1.9154 C.3            1 <1>                0.0000
      4 C4           0.5664   1.6626  -1.0517 C.3            1 <1>                0.0000
      5 N5           0.5264   0.2272  -1.3419 N.pl3          1 <1>                0.0000
      6 C6           0.5097  -0.3459  -2.5765 C.2            1 <1>                0.0000
      7 N7           0.4738  -1.6426  -2.4605 N.2            1 <1>                0.0000
      8 C8           0.4654  -1.9797  -1.1485 C.ar           1 <1>                0.0000
      9 C9           0.4323  -3.2061  -0.4471 C.ar           1 <1>                0.0000
     10 N10          0.3994  -4.3910  -1.1631 N.pl3          1 <1>                0.0000
     11 N11          0.4323  -3.2526   0.8653 N.ar           1 <1>                0.0000
     12 C12          0.4634  -2.1514   1.6309 C.ar           1 <1>                0.0000
     13 C13          0.4628  -2.2464   3.0308 C.ar           1 <1>                0.0000
     14 C14          0.4951  -1.1135   3.7879 C.ar           1 <1>                0.0000
     15 C15          0.5285   0.1442   3.1947 C.ar           1 <1>                0.0000
     16 C16          0.5303   0.2740   1.8365 C.ar           1 <1>                0.0000
     17 C17          0.4981  -0.8691   1.0313 C.ar           1 <1>                0.0000
     18 C18          0.5050  -0.7851  -0.4227 C.ar           1 <1>                0.0000
     19 H19         -1.7778   3.9644  -0.0105 H              1 <1>                0.0000
     20 H20         -0.1265   3.7135   0.6048 H              1 <1>                0.0000
     21 H21         -0.3802   4.2186  -1.0830 H              1 <1>                0.0000
     22 H22         -1.2354   1.5485   0.1235 H              1 <1>                0.0000
     23 H23         -1.4011   2.6782  -2.7061 H              1 <1>                0.0000
     24 H24         -1.7326   0.9844  -2.2706 H              1 <1>                0.0000
     25 H25         -2.7706   2.2852  -1.6392 H              1 <1>                0.0000
     26 H26          0.9257   2.2007  -1.9289 H              1 <1>                0.0000
     27 H27          1.2383   1.8451  -0.2130 H              1 <1>                0.0000
     28 H28          0.5237   0.1937  -3.5119 H              1 <1>                0.0000
     29 H29          0.3993  -4.3718  -2.1329 H              1 <1>                0.0000
     30 H30          0.3763  -5.2402  -0.6949 H              1 <1>                0.0000
     31 H31          0.4364  -3.2152   3.5073 H              1 <1>                0.0000
     32 H32          0.4944  -1.1935   4.8649 H              1 <1>                0.0000
     33 H33          0.5530   1.0273   3.8158 H              1 <1>                0.0000
     34 H34          0.5560   1.2549   1.3853 H              1 <1>                0.0000
@<TRIPOS>BOND
    1    1    2 1     
    2    1   19 1     
    3    1   20 1     
    4    1   21 1     
    5    2    3 1     
    6    2    4 1     
    7    2   22 1     
    8    3   23 1     
    9    3   24 1     
   10    3   25 1     
   11    4    5 1     
   12    4   26 1     
   13    4   27 1     
   14    5   18 1     
   15    5    6 1     
   16    6    7 2     
   17    6   28 1     
   18    7    8 1     
   19    8   18 ar    
   20    8    9 ar    
   21    9   10 1     
   22    9   11 ar    
   23   10   29 1     
   24   10   30 1     
   25   11   12 ar    
   26   12   17 ar    
   27   12   13 ar    
   28   13   14 ar    
   29   13   31 1     
   30   14   15 ar    
   31   14   32 1     
   32   15   16 ar    
   33   15   33 1     
   34   16   17 ar    
   35   16   34 1     
   36   17   18 ar    
@<TRIPOS>SUBSTRUCTURE
      1 ****           1
@<TRIPOS>SET
DONOR_HYDROGENS      STATIC     ATOMS    <user>   **** ""
2 29 30
ATOM$RED        STATIC     ATOMS    COLORGROUP SYSTEM
2 29 30
