#       Name:                790
#       Creating user name   gbret
#       Creation time:       Fri Sep  9 02:38:49 2016


#       File generated by GOLD software.
#

@<TRIPOS>MOLECULE
790
    25    26     1
SMALL
NO_CHARGES


@<TRIPOS>ATOM
      1 O1           0.5149  -0.4275  -3.2658 O.co2          1 <1>                0.0000
      2 P2           0.4936   1.1390  -3.2572 P.3            1 <1>                0.0000
      3 O3           1.9634   1.6813  -3.2683 O.co2          1 <1>                0.0000
      4 O4          -0.2641   1.6580  -4.5264 O.co2          1 <1>                0.0000
      5 O5          -0.2600   1.6582  -1.9325 O.3            1 <1>                0.0000
      6 C6           0.3241   1.2584  -0.7711 C.ar           1 <1>                0.0000
      7 C7           1.4906   1.8647  -0.3437 C.ar           1 <1>                0.0000
      8 C8           2.0858   1.4585   0.8366 C.ar           1 <1>                0.0000
      9 C9           1.5122   0.4511   1.5860 C.ar           1 <1>                0.0000
     10 C10          0.3401  -0.1610   1.1663 C.ar           1 <1>                0.0000
     11 C11         -0.2458  -1.2450   2.0357 C.3            1 <1>                0.0000
     12 C12         -1.2841  -2.0391   1.2400 C.3            1 <1>                0.0000
     13 C13         -2.2043  -1.0371   0.5316 C.3            1 <1>                0.0000
     14 N14         -1.4333  -0.3436  -0.5023 N.3            1 <1>                0.0000
     15 C15         -0.2621   0.2389  -0.0117 C.ar           1 <1>                0.0000
     16 H16          1.9365   2.6539  -0.9307 H              1 <1>                0.0000
     17 H17          2.9985   1.9287   1.1715 H              1 <1>                0.0000
     18 H18          1.9802   0.1365   2.5071 H              1 <1>                0.0000
     19 H19          0.5486  -1.9147   2.3651 H              1 <1>                0.0000
     20 H20         -0.7230  -0.7939   2.9057 H              1 <1>                0.0000
     21 H21         -0.7829  -2.6650   0.5017 H              1 <1>                0.0000
     22 H22         -1.8691  -2.6623   1.9164 H              1 <1>                0.0000
     23 H23         -3.0381  -1.5677   0.0720 H              1 <1>                0.0000
     24 H24         -2.5817  -0.3131   1.2538 H              1 <1>                0.0000
     25 H25         -1.2389  -0.9561  -1.2803 H              1 <1>                0.0000
@<TRIPOS>BOND
    1    1    2 ar    
    2    2    3 ar    
    3    2    4 ar    
    4    2    5 1     
    5    5    6 1     
    6    6   15 ar    
    7    6    7 ar    
    8    7    8 ar    
    9    7   16 1     
   10    8    9 ar    
   11    8   17 1     
   12    9   10 ar    
   13    9   18 1     
   14   10   15 ar    
   15   10   11 1     
   16   11   12 1     
   17   11   19 1     
   18   11   20 1     
   19   12   13 1     
   20   12   21 1     
   21   12   22 1     
   22   13   14 1     
   23   13   23 1     
   24   13   24 1     
   25   14   15 1     
   26   14   25 1     
@<TRIPOS>SUBSTRUCTURE
      1 ****           1
@<TRIPOS>SET
DONOR_HYDROGENS      STATIC     ATOMS    <user>   **** ""
1 25
ATOM$RED        STATIC     ATOMS    COLORGROUP SYSTEM
1 25
