#       Name:                79W
#       Creating user name   gbret
#       Creation time:       Fri Sep  9 02:39:42 2016


#       File generated by GOLD software.
#

@<TRIPOS>MOLECULE
79W
    26    27     1
SMALL
NO_CHARGES


@<TRIPOS>ATOM
      1 O1          -2.7402  -4.3871   0.0392 O.2            1 <1>                0.0000
      2 C2          -2.7567  -3.1747   0.0459 C.2            1 <1>                0.0000
      3 C3          -1.4923  -2.4216   0.0379 C.ar           1 <1>                0.0000
      4 C4          -0.2697  -3.1007   0.0168 C.ar           1 <1>                0.0000
      5 C5           0.9104  -2.3880   0.0094 C.ar           1 <1>                0.0000
      6 C6           0.8875  -1.0040   0.0233 C.ar           1 <1>                0.0000
      7 C7          -0.3180  -0.3248   0.0442 C.ar           1 <1>                0.0000
      8 C8          -1.5071  -1.0233   0.0455 C.ar           1 <1>                0.0000
      9 C9          -0.3315   1.1820   0.0592 C.3            1 <1>                0.0000
     10 C10          0.5051   1.7163   1.2403 C.3            1 <1>                0.0000
     11 C11          1.1574   3.0200   0.8280 C.2            1 <1>                0.0000
     12 O12          1.1716   4.0462   1.4643 O.2            1 <1>                0.0000
     13 C13          1.7941   2.7950  -0.5418 C.3            1 <1>                0.0000
     14 S14          0.5029   1.8433  -1.4299 S.o2           1 <1>                0.0000
     15 O15          1.1103   0.7757  -2.1445 O.2            1 <1>                0.0000
     16 O16         -0.3696   2.7424  -2.1004 O.2            1 <1>                0.0000
     17 H17         -3.6992  -2.6474   0.0532 H              1 <1>                0.0000
     18 H18         -0.2502  -4.1804   0.0066 H              1 <1>                0.0000
     19 H19          1.8553  -2.9109  -0.0069 H              1 <1>                0.0000
     20 H20          1.8154  -0.4514   0.0182 H              1 <1>                0.0000
     21 H21         -2.4472  -0.4919   0.0615 H              1 <1>                0.0000
     22 H22         -1.3551   1.5519   0.1176 H              1 <1>                0.0000
     23 H23         -0.1427   1.8870   2.1001 H              1 <1>                0.0000
     24 H24          1.2738   0.9894   1.5029 H              1 <1>                0.0000
     25 H25          1.9859   3.7453  -1.0401 H              1 <1>                0.0000
     26 H26          2.7109   2.2124  -0.4514 H              1 <1>                0.0000
@<TRIPOS>BOND
    1    1    2 2     
    2    2    3 1     
    3    2   17 1     
    4    3    8 ar    
    5    3    4 ar    
    6    4    5 ar    
    7    4   18 1     
    8    5    6 ar    
    9    5   19 1     
   10    6    7 ar    
   11    6   20 1     
   12    7    8 ar    
   13    7    9 1     
   14    8   21 1     
   15    9   14 1     
   16    9   10 1     
   17    9   22 1     
   18   10   11 1     
   19   10   23 1     
   20   10   24 1     
   21   11   12 2     
   22   11   13 1     
   23   13   14 1     
   24   13   25 1     
   25   13   26 1     
   26   14   15 2     
   27   14   16 2     
@<TRIPOS>SUBSTRUCTURE
      1 ****           1
