#       Name:                7CE
#       Creating user name   gbret
#       Creation time:       Fri Sep  9 02:41:03 2016


#       File generated by GOLD software.
#

@<TRIPOS>MOLECULE
7CE
    37    40     1
SMALL
NO_CHARGES


@<TRIPOS>ATOM
      1 C1          -1.5307   5.7827  -0.1212 C.3            1 <1>                0.0000
      2 O2          -0.9481   4.4784  -0.0840 O.3            1 <1>                0.0000
      3 C3          -0.8149   3.8277  -1.2708 C.ar           1 <1>                0.0000
      4 C4          -1.2303   4.4334  -2.4451 C.ar           1 <1>                0.0000
      5 C5          -1.0947   3.7703  -3.6510 C.ar           1 <1>                0.0000
      6 C6          -0.5448   2.5023  -3.6891 C.ar           1 <1>                0.0000
      7 C7          -0.1277   1.8908  -2.5220 C.ar           1 <1>                0.0000
      8 C8          -0.2549   2.5524  -1.3090 C.ar           1 <1>                0.0000
      9 N9           0.1672   1.9355  -0.1254 N.pl3          1 <1>                0.0000
     10 C10          0.1459   0.5473  -0.0179 C.ar           1 <1>                0.0000
     11 C11          0.6976  -0.0559   1.1022 C.ar           1 <1>                0.0000
     12 C12          0.6710  -1.4424   1.1995 C.ar           1 <1>                0.0000
     13 N13          1.1101  -2.3458   2.1352 N.pl3          1 <1>                0.0000
     14 H14          1.5563  -2.1167   2.9655 H              1 <1>                0.0000
     15 C15          0.8206  -3.6289   1.7176 C.2            1 <1>                0.0000
     16 C16          0.1932  -3.5837   0.5128 C.2            1 <1>                0.0000
     17 C17          0.0793  -2.1744   0.1453 C.ar           1 <1>                0.0000
     18 C18         -0.4527  -1.4879  -0.9452 C.ar           1 <1>                0.0000
     19 N19         -0.4071  -0.1719  -0.9875 N.ar           1 <1>                0.0000
     20 C20          1.1424  -4.8574   2.4619 C.2            1 <1>                0.0000
     21 C21          0.8754  -6.1343   2.0748 C.2            1 <1>                0.0000
     22 N22          1.3311  -6.9504   3.0361 N.2            1 <1>                0.0000
     23 C23          1.8607  -6.2313   3.9859 C.2            1 <1>                0.0000
     24 O24          1.7655  -4.9347   3.6592 O.3            1 <1>                0.0000
     25 H25         -2.5371   5.7194  -0.5351 H              1 <1>                0.0000
     26 H26         -1.5784   6.1883   0.8895 H              1 <1>                0.0000
     27 H27         -0.9212   6.4353  -0.7462 H              1 <1>                0.0000
     28 H28         -1.6606   5.4236  -2.4189 H              1 <1>                0.0000
     29 H29         -1.4196   4.2441  -4.5655 H              1 <1>                0.0000
     30 H30         -0.4413   1.9882  -4.6333 H              1 <1>                0.0000
     31 H31          0.3008   0.9000  -2.5546 H              1 <1>                0.0000
     32 H32          0.4745   2.4750   0.6199 H              1 <1>                0.0000
     33 H33          1.1406   0.5413   1.8854 H              1 <1>                0.0000
     34 H34         -0.1547  -4.4284  -0.0631 H              1 <1>                0.0000
     35 H35         -0.9074  -2.0368  -1.7566 H              1 <1>                0.0000
     36 H36          0.3856  -6.4354   1.1606 H              1 <1>                0.0000
     37 H37          2.3086  -6.6185   4.8892 H              1 <1>                0.0000
@<TRIPOS>BOND
    1    1    2 1     
    2    1   25 1     
    3    1   26 1     
    4    1   27 1     
    5    2    3 1     
    6    3    8 ar    
    7    3    4 ar    
    8    4    5 ar    
    9    4   28 1     
   10    5    6 ar    
   11    5   29 1     
   12    6    7 ar    
   13    6   30 1     
   14    7    8 ar    
   15    7   31 1     
   16    8    9 1     
   17    9   10 1     
   18    9   32 1     
   19   10   19 ar    
   20   10   11 ar    
   21   11   12 ar    
   22   11   33 1     
   23   12   17 ar    
   24   12   13 1     
   25   13   14 1     
   26   13   15 1     
   27   15   16 2     
   28   15   20 1     
   29   16   17 1     
   30   16   34 1     
   31   17   18 ar    
   32   18   19 ar    
   33   18   35 1     
   34   20   24 1     
   35   20   21 2     
   36   21   22 1     
   37   21   36 1     
   38   22   23 2     
   39   23   24 1     
   40   23   37 1     
@<TRIPOS>SUBSTRUCTURE
      1 ****           1
@<TRIPOS>SET
DONOR_HYDROGENS      STATIC     ATOMS    <user>   **** ""
2 32 14
ATOM$RED        STATIC     ATOMS    COLORGROUP SYSTEM
2 32 14
