#       Name:                7GP
#       Creating user name   gbret
#       Creation time:       Fri Sep  9 02:42:48 2016


#       File generated by GOLD software.
#

@<TRIPOS>MOLECULE
7GP
    36    36     1
SMALL
NO_CHARGES


@<TRIPOS>ATOM
      1 C1           3.7593   5.4107   0.3681 C.3            1 <1>                0.0000
      2 C2           3.7801   3.8808   0.3597 C.3            1 <1>                0.0000
      3 O3           2.4179   3.3782   0.3700 O.3            1 <1>                0.0000
      4 C4           2.2597   2.0422   0.3644 C.2            1 <1>                0.0000
      5 O5           3.2312   1.3168   0.3512 O.2            1 <1>                0.0000
      6 C6           0.8867   1.4523   0.3743 C.2            1 <1>                0.0000
      7 O7          -0.0855   2.1783   0.3875 O.2            1 <1>                0.0000
      8 N8           0.7283   0.1139   0.3686 N.am           1 <1>                0.0000
      9 C9          -0.6177  -0.4644   0.3784 C.3            1 <1>                0.0000
     10 O10         -0.9753  -0.8616  -0.9469 O.3            1 <1>                0.0000
     11 C11         -2.2871  -1.4181  -1.0553 C.3            1 <1>                0.0000
     12 C12         -2.5694  -1.7785  -2.5152 C.3            1 <1>                0.0000
     13 O13         -2.5983  -0.5867  -3.3030 O.3            1 <1>                0.0000
     14 C14         -2.3780  -2.6788  -0.1915 C.3            1 <1>                0.0000
     15 O15         -1.4532  -3.6557  -0.6736 O.3            1 <1>                0.0000
     16 C16         -2.0352  -2.3209   1.2580 C.3            1 <1>                0.0000
     17 O17         -2.0459  -3.5049   2.0580 O.3            1 <1>                0.0000
     18 C18         -0.6415  -1.6868   1.2998 C.3            1 <1>                0.0000
     19 O19          0.3292  -2.6375   0.8572 O.3            1 <1>                0.0000
     20 H20          4.7819   5.7880   0.3604 H              1 <1>                0.0000
     21 H21          3.2321   5.7717  -0.5149 H              1 <1>                0.0000
     22 H22          3.2491   5.7622   1.2649 H              1 <1>                0.0000
     23 H23          4.2903   3.5293  -0.5371 H              1 <1>                0.0000
     24 H24          4.3073   3.5198   1.2428 H              1 <1>                0.0000
     25 H25          1.5055  -0.4665   0.3581 H              1 <1>                0.0000
     26 H26         -1.3295   0.2775   0.7402 H              1 <1>                0.0000
     27 H27         -3.0209  -0.6887  -0.7125 H              1 <1>                0.0000
     28 H28         -1.7852  -2.4393  -2.8845 H              1 <1>                0.0000
     29 H29         -3.5328  -2.2836  -2.5850 H              1 <1>                0.0000
     30 H30         -2.7729  -0.7398  -4.2417 H              1 <1>                0.0000
     31 H31         -3.3901  -3.0806  -0.2388 H              1 <1>                0.0000
     32 H32         -1.4571  -4.4823  -0.1717 H              1 <1>                0.0000
     33 H33         -2.7705  -1.6142   1.6427 H              1 <1>                0.0000
     34 H34         -1.8368  -3.3520   2.9896 H              1 <1>                0.0000
     35 H35         -0.4121  -1.3785   2.3198 H              1 <1>                0.0000
     36 H36          1.2364  -2.3027   0.8580 H              1 <1>                0.0000
@<TRIPOS>BOND
    1    1    2 1     
    2    1   20 1     
    3    1   21 1     
    4    1   22 1     
    5    2    3 1     
    6    2   23 1     
    7    2   24 1     
    8    3    4 1     
    9    4    5 2     
   10    4    6 1     
   11    6    7 2     
   12    6    8 am    
   13    8    9 1     
   14    8   25 1     
   15    9   18 1     
   16    9   10 1     
   17    9   26 1     
   18   10   11 1     
   19   11   12 1     
   20   11   14 1     
   21   11   27 1     
   22   12   13 1     
   23   12   28 1     
   24   12   29 1     
   25   13   30 1     
   26   14   15 1     
   27   14   16 1     
   28   14   31 1     
   29   15   32 1     
   30   16   17 1     
   31   16   18 1     
   32   16   33 1     
   33   17   34 1     
   34   18   19 1     
   35   18   35 1     
   36   19   36 1     
@<TRIPOS>SUBSTRUCTURE
      1 ****           1
@<TRIPOS>SET
DONOR_HYDROGENS      STATIC     ATOMS    <user>   **** ""
5 25 30 32 34 36
ATOM$RED        STATIC     ATOMS    COLORGROUP SYSTEM
5 25 30 32 34 36
