#       Name:                7HN
#       Creating user name   gbret
#       Creation time:       Fri Sep  9 02:43:13 2016


#       File generated by GOLD software.
#

@<TRIPOS>MOLECULE
7HN
    29    30     1
SMALL
NO_CHARGES


@<TRIPOS>ATOM
      1 O1           1.5355   3.8600  -0.6024 O.3            1 <1>                0.0000
      2 C2           1.6247   2.5055  -0.5850 C.ar           1 <1>                0.0000
      3 C3           2.4365   1.8529  -1.5037 C.ar           1 <1>                0.0000
      4 C4           2.5304   0.4790  -1.4909 C.ar           1 <1>                0.0000
      5 C5           1.8075  -0.2624  -0.5508 C.ar           1 <1>                0.0000
      6 C6           1.9067  -1.7314  -0.5349 C.2            1 <1>                0.0000
      7 O7           1.8979  -2.3565  -1.5865 O.co2          1 <1>                0.0000
      8 O8           1.9980  -2.3269   0.5298 O.co2          1 <1>                0.0000
      9 C9           0.9901   0.3953   0.3748 C.ar           1 <1>                0.0000
     10 C10          0.2087  -0.3980   1.3903 C.3            1 <1>                0.0000
     11 C11         -1.0983  -0.8404   0.7844 C.ar           1 <1>                0.0000
     12 C12         -2.2313  -0.0603   0.9386 C.ar           1 <1>                0.0000
     13 F13         -2.1650   1.0972   1.6321 F              1 <1>                0.0000
     14 C14         -3.4336  -0.4662   0.3813 C.ar           1 <1>                0.0000
     15 F15         -4.5391   0.2958   0.5312 F              1 <1>                0.0000
     16 C16         -3.5014  -1.6535  -0.3299 C.ar           1 <1>                0.0000
     17 F17         -4.6729  -2.0496  -0.8738 F              1 <1>                0.0000
     18 C18         -2.3668  -2.4340  -0.4834 C.ar           1 <1>                0.0000
     19 F19         -2.4317  -3.5916  -1.1770 F              1 <1>                0.0000
     20 C20         -1.1638  -2.0236   0.0693 C.ar           1 <1>                0.0000
     21 F21         -0.0575  -2.7845  -0.0802 F              1 <1>                0.0000
     22 C22          0.9053   1.7733   0.3590 C.ar           1 <1>                0.0000
     23 O23          0.1121   2.4160   1.2576 O.3            1 <1>                0.0000
     24 H24          2.1912   4.3045  -0.0478 H              1 <1>                0.0000
     25 H25          2.9953   2.4243  -2.2302 H              1 <1>                0.0000
     26 H26          3.1620  -0.0258  -2.2070 H              1 <1>                0.0000
     27 H27          0.7853  -1.2734   1.6893 H              1 <1>                0.0000
     28 H28          0.0123   0.2235   2.2639 H              1 <1>                0.0000
     29 H29          0.5608   2.6501   2.0815 H              1 <1>                0.0000
@<TRIPOS>BOND
    1    1    2 1     
    2    1   24 1     
    3    2   22 ar    
    4    2    3 ar    
    5    3    4 ar    
    6    3   25 1     
    7    4    5 ar    
    8    4   26 1     
    9    5    6 1     
   10    5    9 ar    
   11    6    7 ar    
   12    6    8 ar    
   13    9   10 1     
   14    9   22 ar    
   15   10   11 1     
   16   10   27 1     
   17   10   28 1     
   18   11   20 ar    
   19   11   12 ar    
   20   12   13 1     
   21   12   14 ar    
   22   14   15 1     
   23   14   16 ar    
   24   16   17 1     
   25   16   18 ar    
   26   18   19 1     
   27   18   20 ar    
   28   20   21 1     
   29   22   23 1     
   30   23   29 1     
@<TRIPOS>SUBSTRUCTURE
      1 ****           1
@<TRIPOS>SET
DONOR_HYDROGENS      STATIC     ATOMS    <user>   **** ""
2 24 29
ATOM$RED        STATIC     ATOMS    COLORGROUP SYSTEM
2 24 29
