#       Name:                7L5
#       Creating user name   gbret
#       Creation time:       Fri Sep  9 02:44:20 2016


#       File generated by GOLD software.
#

@<TRIPOS>MOLECULE
7L5
    61    63     1
SMALL
NO_CHARGES


@<TRIPOS>ATOM
      1 C1           0.6823   6.1356  -3.8560 C.3            1 <1>                0.0000
      2 C2           0.7028   4.6287  -3.8643 C.2            1 <1>                0.0000
      3 N3           0.7087   3.8688  -4.9296 N.2            1 <1>                0.0000
      4 N4           0.7286   2.5304  -4.5167 N.pl3          1 <1>                0.0000
      5 C5           0.7413   1.3572  -5.3940 C.3            1 <1>                0.0000
      6 C6           0.7344   2.5135  -3.1572 C.2            1 <1>                0.0000
      7 C7           0.7554   1.2869  -2.2819 C.3            1 <1>                0.0000
      8 C8           0.7248   3.8021  -2.7318 C.2            1 <1>                0.0000
      9 N9           0.7265   4.2326  -1.3913 N.pl3          1 <1>                0.0000
     10 C10          1.9961   4.4678  -0.6991 C.3            1 <1>                0.0000
     11 F11          2.0602   5.8019  -0.2828 F              1 <1>                0.0000
     12 F12          2.0823   3.6268   0.4156 F              1 <1>                0.0000
     13 S13         -0.7065   4.4730  -0.5969 S.o2           1 <1>                0.0000
     14 O14         -0.4328   5.3861   0.4570 O.2            1 <1>                0.0000
     15 O15         -1.6852   4.7132  -1.5988 O.2            1 <1>                0.0000
     16 C16         -1.1415   2.9464   0.1678 C.ar           1 <1>                0.0000
     17 C17         -1.9078   2.0220  -0.5192 C.ar           1 <1>                0.0000
     18 Cl18        -2.4406   2.3656  -2.1353 Cl             1 <1>                0.0000
     19 C19         -2.2491   0.8234   0.0818 C.ar           1 <1>                0.0000
     20 C20         -1.8245   0.5496   1.3684 C.ar           1 <1>                0.0000
     21 C21         -2.1966  -0.7561   2.0224 C.3            1 <1>                0.0000
     22 C22         -1.1227  -1.8027   1.7191 C.3            1 <1>                0.0000
     23 C23         -1.5004  -3.1283   2.3831 C.3            1 <1>                0.0000
     24 C24         -0.4265  -4.1750   2.0798 C.3            1 <1>                0.0000
     25 C25          0.8918  -3.7626   2.7411 C.3            1 <1>                0.0000
     26 C26          1.9393  -4.8518   2.5009 C.3            1 <1>                0.0000
     27 N27          1.4751  -6.1183   3.0796 N.4            1 <1>                0.0000
     28 H28          2.1905  -6.8208   2.9667 H              1 <1>                0.0000
     29 H29          1.2849  -5.9883   4.0620 H              1 <1>                0.0000
     30 C30          0.2497  -6.5566   2.4008 C.3            1 <1>                0.0000
     31 C31         -0.8629  -5.5329   2.6372 C.3            1 <1>                0.0000
     32 C32         -1.0585   1.4726   2.0551 C.ar           1 <1>                0.0000
     33 C33         -0.7121   2.6694   1.4532 C.ar           1 <1>                0.0000
     34 Cl34         0.2505   3.8283   2.3157 Cl             1 <1>                0.0000
     35 H35          1.7049   6.5129  -3.8637 H              1 <1>                0.0000
     36 H36          0.1552   6.4967  -4.7391 H              1 <1>                0.0000
     37 H37          0.1721   6.4871  -2.9592 H              1 <1>                0.0000
     38 H38          1.7721   1.0806  -5.6158 H              1 <1>                0.0000
     39 H39          0.2411   0.5262  -4.8968 H              1 <1>                0.0000
     40 H40          0.2204   1.5919  -6.3223 H              1 <1>                0.0000
     41 H41          1.7880   1.0055  -2.0754 H              1 <1>                0.0000
     42 H42          0.2427   1.5009  -1.3441 H              1 <1>                0.0000
     43 H43          0.2506   0.4671  -2.7931 H              1 <1>                0.0000
     44 H44          2.8237   4.2586  -1.3770 H              1 <1>                0.0000
     45 H45         -2.8476   0.1018  -0.4543 H              1 <1>                0.0000
     46 H46         -2.2714  -0.6141   3.1006 H              1 <1>                0.0000
     47 H47         -3.1562  -1.0968   1.6335 H              1 <1>                0.0000
     48 H48         -1.0479  -1.9447   0.6410 H              1 <1>                0.0000
     49 H49         -0.1631  -1.4620   2.1081 H              1 <1>                0.0000
     50 H50         -1.5752  -2.9863   3.4613 H              1 <1>                0.0000
     51 H51         -2.4600  -3.4691   1.9942 H              1 <1>                0.0000
     52 H52         -0.2864  -4.2516   1.0016 H              1 <1>                0.0000
     53 H53          1.2375  -2.8234   2.3091 H              1 <1>                0.0000
     54 H54          0.7374  -3.6360   3.8127 H              1 <1>                0.0000
     55 H55          2.0930  -4.9774   1.4291 H              1 <1>                0.0000
     56 H56          2.8792  -4.5613   2.9703 H              1 <1>                0.0000
     57 H57          0.4394  -6.6458   1.3312 H              1 <1>                0.0000
     58 H58         -0.0579  -7.5246   2.7964 H              1 <1>                0.0000
     59 H59         -1.0536  -5.4431   3.7066 H              1 <1>                0.0000
     60 H60         -1.7713  -5.8593   2.1310 H              1 <1>                0.0000
     61 H61         -0.7268   1.2580   3.0603 H              1 <1>                0.0000
@<TRIPOS>BOND
    1    1    2 1     
    2    1   35 1     
    3    1   36 1     
    4    1   37 1     
    5    2    8 1     
    6    2    3 2     
    7    3    4 1     
    8    4    5 1     
    9    4    6 1     
   10    5   38 1     
   11    5   39 1     
   12    5   40 1     
   13    6    7 1     
   14    6    8 2     
   15    7   41 1     
   16    7   42 1     
   17    7   43 1     
   18    8    9 1     
   19    9   10 1     
   20    9   13 1     
   21   10   11 1     
   22   10   12 1     
   23   10   44 1     
   24   13   14 2     
   25   13   15 2     
   26   13   16 1     
   27   16   33 ar    
   28   16   17 ar    
   29   17   18 1     
   30   17   19 ar    
   31   19   20 ar    
   32   19   45 1     
   33   20   21 1     
   34   20   32 ar    
   35   21   22 1     
   36   21   46 1     
   37   21   47 1     
   38   22   23 1     
   39   22   48 1     
   40   22   49 1     
   41   23   24 1     
   42   23   50 1     
   43   23   51 1     
   44   24   31 1     
   45   24   25 1     
   46   24   52 1     
   47   25   26 1     
   48   25   53 1     
   49   25   54 1     
   50   26   27 1     
   51   26   55 1     
   52   26   56 1     
   53   27   28 1     
   54   27   29 1     
   55   27   30 1     
   56   30   31 1     
   57   30   57 1     
   58   30   58 1     
   59   31   59 1     
   60   31   60 1     
   61   32   33 ar    
   62   32   61 1     
   63   33   34 1     
@<TRIPOS>SUBSTRUCTURE
      1 ****           1
@<TRIPOS>SET
DONOR_HYDROGENS      STATIC     ATOMS    <user>   **** ""
2 28 29
ATOM$RED        STATIC     ATOMS    COLORGROUP SYSTEM
2 28 29
