#       Name:                7PQ
#       Creating user name   gbret
#       Creation time:       Fri Sep  9 02:46:30 2016


#       File generated by GOLD software.
#

@<TRIPOS>MOLECULE
7PQ
    58    61     1
SMALL
NO_CHARGES


@<TRIPOS>ATOM
      1 N1          -3.5978  -3.4738  -0.6374 N.4            1 <1>                0.0000
      2 H2          -3.5841  -4.4827  -0.6430 H              1 <1>                0.0000
      3 H3          -2.6512  -3.1245  -0.6446 H              1 <1>                0.0000
      4 H4          -4.0858  -3.1395  -1.4549 H              1 <1>                0.0000
      5 C5          -4.2854  -3.0000   0.5712 C.3            1 <1>                0.0000
      6 C6          -3.5565  -3.4992   1.7921 C.ar           1 <1>                0.0000
      7 C7          -4.0342  -4.6150   2.4703 C.ar           1 <1>                0.0000
      8 C8          -3.3994  -5.0921   3.5769 C.ar           1 <1>                0.0000
      9 C9          -2.2399  -4.4558   4.0534 C.ar           1 <1>                0.0000
     10 C10         -1.5664  -4.9286   5.1931 C.ar           1 <1>                0.0000
     11 C11         -0.4461  -4.2887   5.6272 C.ar           1 <1>                0.0000
     12 C12          0.0449  -3.1698   4.9581 C.ar           1 <1>                0.0000
     13 C13         -0.5830  -2.6846   3.8509 C.ar           1 <1>                0.0000
     14 C14         -1.7393  -3.3184   3.3746 C.ar           1 <1>                0.0000
     15 C15         -2.4151  -2.8457   2.2235 C.ar           1 <1>                0.0000
     16 C16         -1.9097  -1.6620   1.4928 C.ar           1 <1>                0.0000
     17 C17         -2.6702  -0.4917   1.4489 C.ar           1 <1>                0.0000
     18 C18         -2.2008   0.6092   0.7697 C.ar           1 <1>                0.0000
     19 C19         -0.9627   0.5558   0.1238 C.ar           1 <1>                0.0000
     20 C20         -0.2020  -0.6156   0.1681 C.ar           1 <1>                0.0000
     21 C21         -0.6698  -1.7140   0.8524 C.ar           1 <1>                0.0000
     22 C22         -0.4585   1.7368  -0.6057 C.2            1 <1>                0.0000
     23 O23         -1.1207   2.7557  -0.6443 O.2            1 <1>                0.0000
     24 N24          0.7355   1.6851  -1.2285 N.am           1 <1>                0.0000
     25 C25          1.2356   2.8566  -1.9522 C.3            1 <1>                0.0000
     26 C26          2.6012   2.5345  -2.5624 C.3            1 <1>                0.0000
     27 N27          3.1026   3.7093  -3.2881 N.4            1 <1>                0.0000
     28 H28          2.4172   4.0026  -3.9680 H              1 <1>                0.0000
     29 C29          3.3500   4.8029  -2.3385 C.3            1 <1>                0.0000
     30 C30          3.8721   6.0257  -3.0969 C.3            1 <1>                0.0000
     31 O31          5.0609   5.6678  -3.8072 O.3            1 <1>                0.0000
     32 C32          4.8761   4.5894  -4.7284 C.3            1 <1>                0.0000
     33 C33          4.3558   3.3639  -3.9732 C.3            1 <1>                0.0000
     34 H34         -4.3002  -1.9101   0.5772 H              1 <1>                0.0000
     35 H35         -5.3080  -3.3773   0.5789 H              1 <1>                0.0000
     36 H36         -4.9243  -5.1118   2.1137 H              1 <1>                0.0000
     37 H37         -3.7875  -5.9601   4.0892 H              1 <1>                0.0000
     38 H38         -1.9361  -5.7948   5.7217 H              1 <1>                0.0000
     39 H39          0.0695  -4.6536   6.5033 H              1 <1>                0.0000
     40 H40          0.9357  -2.6798   5.3226 H              1 <1>                0.0000
     41 H41         -0.1918  -1.8158   3.3423 H              1 <1>                0.0000
     42 H42         -3.6272  -0.4507   1.9479 H              1 <1>                0.0000
     43 H43         -2.7892   1.5142   0.7356 H              1 <1>                0.0000
     44 H44          0.7549  -0.6574  -0.3310 H              1 <1>                0.0000
     45 H45         -0.0821  -2.6194   0.8867 H              1 <1>                0.0000
     46 H46          1.2638   0.8722  -1.1976 H              1 <1>                0.0000
     47 H47          0.5360   3.1196  -2.7455 H              1 <1>                0.0000
     48 H48          1.3345   3.6948  -1.2624 H              1 <1>                0.0000
     49 H49          3.3008   2.2716  -1.7691 H              1 <1>                0.0000
     50 H50          2.5023   1.6963  -3.2522 H              1 <1>                0.0000
     51 H51          2.4208   5.0600  -1.8298 H              1 <1>                0.0000
     52 H52          4.0911   4.4866  -1.6045 H              1 <1>                0.0000
     53 H53          3.1149   6.3668  -3.8030 H              1 <1>                0.0000
     54 H54          4.0971   6.8240  -2.3897 H              1 <1>                0.0000
     55 H55          4.1533   4.8812  -5.4903 H              1 <1>                0.0000
     56 H56          5.8278   4.3481  -5.2020 H              1 <1>                0.0000
     57 H57          5.0964   3.0479  -3.2386 H              1 <1>                0.0000
     58 H58          4.1734   2.5527  -4.6781 H              1 <1>                0.0000
@<TRIPOS>BOND
    1    1    2 1     
    2    1    3 1     
    3    1    4 1     
    4    1    5 1     
    5    5    6 1     
    6    5   34 1     
    7    5   35 1     
    8    6   15 ar    
    9    6    7 ar    
   10    7    8 ar    
   11    7   36 1     
   12    8    9 ar    
   13    8   37 1     
   14    9   14 ar    
   15    9   10 ar    
   16   10   11 ar    
   17   10   38 1     
   18   11   12 ar    
   19   11   39 1     
   20   12   13 ar    
   21   12   40 1     
   22   13   14 ar    
   23   13   41 1     
   24   14   15 ar    
   25   15   16 1     
   26   16   21 ar    
   27   16   17 ar    
   28   17   18 ar    
   29   17   42 1     
   30   18   19 ar    
   31   18   43 1     
   32   19   20 ar    
   33   19   22 1     
   34   20   21 ar    
   35   20   44 1     
   36   21   45 1     
   37   22   23 2     
   38   22   24 am    
   39   24   25 1     
   40   24   46 1     
   41   25   26 1     
   42   25   47 1     
   43   25   48 1     
   44   26   27 1     
   45   26   49 1     
   46   26   50 1     
   47   27   28 1     
   48   27   33 1     
   49   27   29 1     
   50   29   30 1     
   51   29   51 1     
   52   29   52 1     
   53   30   31 1     
   54   30   53 1     
   55   30   54 1     
   56   31   32 1     
   57   32   33 1     
   58   32   55 1     
   59   32   56 1     
   60   33   57 1     
   61   33   58 1     
@<TRIPOS>SUBSTRUCTURE
      1 ****           1
@<TRIPOS>SET
DONOR_HYDROGENS      STATIC     ATOMS    <user>   **** ""
5 2 3 4 46 28
ATOM$RED        STATIC     ATOMS    COLORGROUP SYSTEM
5 2 3 4 46 28
