#       Name:                812
#       Creating user name   gbret
#       Creation time:       Fri Sep  9 02:50:27 2016


#       File generated by GOLD software.
#

@<TRIPOS>MOLECULE
812
    44    46     1
SMALL
NO_CHARGES


@<TRIPOS>ATOM
      1 C1           2.5656   2.8396   0.0268 C.3            1 <1>                0.0000
      2 N2           2.5855   1.3747   0.0187 N.pl3          1 <1>                0.0000
      3 C3           1.3832   0.6586   0.0264 C.ar           1 <1>                0.0000
      4 C4           0.1711   1.3361   0.0358 C.ar           1 <1>                0.0000
      5 C5          -1.0149   0.6285   0.0434 C.ar           1 <1>                0.0000
      6 C6          -0.9956  -0.7583   0.0415 C.ar           1 <1>                0.0000
      7 O7          -2.1641  -1.4543   0.0486 O.3            1 <1>                0.0000
      8 C8          -2.0699  -2.8802   0.0462 C.3            1 <1>                0.0000
      9 C9          -3.4756  -3.4841   0.0549 C.3            1 <1>                0.0000
     10 C10         -4.3291  -2.8475   1.1799 C.3            1 <1>                0.0000
     11 C11         -5.7686  -3.0749   0.6480 C.3            1 <1>                0.0000
     12 C12         -5.6068  -2.9034  -0.8771 C.3            1 <1>                0.0000
     13 N13         -4.1882  -3.1476  -1.1960 N.4            1 <1>                0.0000
     14 H14         -3.7842  -2.3180  -1.6043 H              1 <1>                0.0000
     15 H15         -4.1135  -3.9170  -1.8446 H              1 <1>                0.0000
     16 C16          0.2146  -1.4358   0.0321 C.ar           1 <1>                0.0000
     17 C17          1.4016  -0.7299   0.0187 C.ar           1 <1>                0.0000
     18 C18          3.9794   3.3612   0.0161 C.ar           1 <1>                0.0000
     19 C19          4.6412   3.5886   1.2082 C.ar           1 <1>                0.0000
     20 C20          5.9381   4.0671   1.1984 C.ar           1 <1>                0.0000
     21 C21          6.5733   4.3177  -0.0035 C.ar           1 <1>                0.0000
     22 C22          5.9118   4.0894  -1.1957 C.ar           1 <1>                0.0000
     23 C23          4.6164   3.6069  -1.1859 C.ar           1 <1>                0.0000
     24 H24          2.0384   3.2007  -0.8563 H              1 <1>                0.0000
     25 H25          2.0554   3.1911   0.9236 H              1 <1>                0.0000
     26 H26          3.4320   0.9012   0.0081 H              1 <1>                0.0000
     27 H27          0.1559   2.4160   0.0376 H              1 <1>                0.0000
     28 H28         -1.9577   1.1553   0.0511 H              1 <1>                0.0000
     29 H29         -1.5392  -3.2077  -0.8478 H              1 <1>                0.0000
     30 H30         -1.5272  -3.2100   0.9321 H              1 <1>                0.0000
     31 H31         -3.4225  -4.5654   0.1822 H              1 <1>                0.0000
     32 H32         -4.1763  -3.3656   2.1267 H              1 <1>                0.0000
     33 H33         -4.1131  -1.7837   1.2794 H              1 <1>                0.0000
     34 H34         -6.1139  -4.0804   0.8882 H              1 <1>                0.0000
     35 H35         -6.4508  -2.3257   1.0498 H              1 <1>                0.0000
     36 H36         -6.2341  -3.6253  -1.4000 H              1 <1>                0.0000
     37 H37         -5.8831  -1.8898  -1.1676 H              1 <1>                0.0000
     38 H38          0.2288  -2.5157   0.0306 H              1 <1>                0.0000
     39 H39          2.3439  -1.2575   0.0113 H              1 <1>                0.0000
     40 H40          4.1450   3.3929   2.1472 H              1 <1>                0.0000
     41 H41          6.4549   4.2455   2.1298 H              1 <1>                0.0000
     42 H42          7.5863   4.6922  -0.0112 H              1 <1>                0.0000
     43 H43          6.4079   4.2855  -2.1347 H              1 <1>                0.0000
     44 H44          4.0996   3.4285  -2.1173 H              1 <1>                0.0000
@<TRIPOS>BOND
    1    1    2 1     
    2    1   18 1     
    3    1   24 1     
    4    1   25 1     
    5    2    3 1     
    6    2   26 1     
    7    3   17 ar    
    8    3    4 ar    
    9    4    5 ar    
   10    4   27 1     
   11    5    6 ar    
   12    5   28 1     
   13    6    7 1     
   14    6   16 ar    
   15    7    8 1     
   16    8    9 1     
   17    8   29 1     
   18    8   30 1     
   19    9   13 1     
   20    9   10 1     
   21    9   31 1     
   22   10   11 1     
   23   10   32 1     
   24   10   33 1     
   25   11   12 1     
   26   11   34 1     
   27   11   35 1     
   28   12   13 1     
   29   12   36 1     
   30   12   37 1     
   31   13   14 1     
   32   13   15 1     
   33   16   17 ar    
   34   16   38 1     
   35   17   39 1     
   36   18   23 ar    
   37   18   19 ar    
   38   19   20 ar    
   39   19   40 1     
   40   20   21 ar    
   41   20   41 1     
   42   21   22 ar    
   43   21   42 1     
   44   22   23 ar    
   45   22   43 1     
   46   23   44 1     
@<TRIPOS>SUBSTRUCTURE
      1 ****           1
@<TRIPOS>SET
DONOR_HYDROGENS      STATIC     ATOMS    <user>   **** ""
3 26 14 15
ATOM$RED        STATIC     ATOMS    COLORGROUP SYSTEM
3 26 14 15
