#       Name:                823
#       Creating user name   gbret
#       Creation time:       Fri Sep  9 02:51:16 2016


#       File generated by GOLD software.
#

@<TRIPOS>MOLECULE
823
    37    36     1
SMALL
NO_CHARGES


@<TRIPOS>ATOM
      1 N1          -0.5993   1.6730  -3.2934 N.4            1 <1>                0.0000
      2 H2          -0.5856   0.6641  -3.2990 H              1 <1>                0.0000
      3 H3           0.3473   2.0223  -3.3006 H              1 <1>                0.0000
      4 H4          -1.0873   2.0073  -4.1109 H              1 <1>                0.0000
      5 C5          -1.2869   2.1468  -2.0848 C.3            1 <1>                0.0000
      6 C6          -0.5469   1.6399  -0.8453 C.3            1 <1>                0.0000
      7 C7          -0.6323   0.1364  -0.7891 C.2            1 <1>                0.0000
      8 O8          -1.2264  -0.4701  -1.6551 O.2            1 <1>                0.0000
      9 N9          -0.0483  -0.5343   0.2236 N.am           1 <1>                0.0000
     10 C10         -0.1313  -1.9959   0.2783 C.3            1 <1>                0.0000
     11 C11          1.0576  -2.6026  -0.4697 C.3            1 <1>                0.0000
     12 C12          0.9710  -4.1291  -0.4126 C.3            1 <1>                0.0000
     13 S13          2.3805  -4.8483  -1.2994 S.3            1 <1>                0.0000
     14 C14          0.6695   0.1982   1.2698 C.3            1 <1>                0.0000
     15 C15         -0.2985   0.5511   2.4010 C.3            1 <1>                0.0000
     16 C16          0.4511   1.3161   3.4935 C.3            1 <1>                0.0000
     17 S17         -0.6964   1.7345   4.8347 S.3            1 <1>                0.0000
     18 C18         -1.3073   3.6536  -2.0765 C.2            1 <1>                0.0000
     19 O19         -0.7965   4.2753  -2.9925 O.co2          1 <1>                0.0000
     20 O20         -1.8347   4.2511  -1.1538 O.co2          1 <1>                0.0000
     21 H21         -2.3095   1.7695  -2.0771 H              1 <1>                0.0000
     22 H22          0.4989   1.9428  -0.8973 H              1 <1>                0.0000
     23 H23         -1.0038   2.0635   0.0491 H              1 <1>                0.0000
     24 H24         -0.1113  -2.3224   1.3181 H              1 <1>                0.0000
     25 H25         -1.0600  -2.3248  -0.1880 H              1 <1>                0.0000
     26 H26          1.0376  -2.2762  -1.5095 H              1 <1>                0.0000
     27 H27          1.9863  -2.2737  -0.0034 H              1 <1>                0.0000
     28 H28          0.9910  -4.4555   0.6272 H              1 <1>                0.0000
     29 H29          0.0422  -4.4579  -0.8789 H              1 <1>                0.0000
     30 H30          2.1768  -6.1714  -1.1690 H              1 <1>                0.0000
     31 H31          1.4748  -0.4233   1.6613 H              1 <1>                0.0000
     32 H32          1.0877   1.1134   0.8508 H              1 <1>                0.0000
     33 H33         -1.1038   1.1726   2.0095 H              1 <1>                0.0000
     34 H34         -0.7167  -0.3641   2.8200 H              1 <1>                0.0000
     35 H35          1.2565   0.6946   3.8850 H              1 <1>                0.0000
     36 H36          0.8694   2.2313   3.0745 H              1 <1>                0.0000
     37 H37          0.0863   2.3925   5.7084 H              1 <1>                0.0000
@<TRIPOS>BOND
    1    1    2 1     
    2    1    3 1     
    3    1    4 1     
    4    1    5 1     
    5    5    6 1     
    6    5   18 1     
    7    5   21 1     
    8    6    7 1     
    9    6   22 1     
   10    6   23 1     
   11    7    8 2     
   12    7    9 am    
   13    9   10 1     
   14    9   14 1     
   15   10   11 1     
   16   10   24 1     
   17   10   25 1     
   18   11   12 1     
   19   11   26 1     
   20   11   27 1     
   21   12   13 1     
   22   12   28 1     
   23   12   29 1     
   24   13   30 1     
   25   14   15 1     
   26   14   31 1     
   27   14   32 1     
   28   15   16 1     
   29   15   33 1     
   30   15   34 1     
   31   16   17 1     
   32   16   35 1     
   33   16   36 1     
   34   17   37 1     
   35   18   19 ar    
   36   18   20 ar    
@<TRIPOS>SUBSTRUCTURE
      1 ****           1
@<TRIPOS>SET
DONOR_HYDROGENS      STATIC     ATOMS    <user>   **** ""
3 2 3 4
ATOM$RED        STATIC     ATOMS    COLORGROUP SYSTEM
3 2 3 4
