#       Name:                824
#       Creating user name   gbret
#       Creation time:       Fri Sep  9 02:51:20 2016


#       File generated by GOLD software.
#

@<TRIPOS>MOLECULE
824
    37    41     1
SMALL
NO_CHARGES


@<TRIPOS>ATOM
      1 O1          -0.1122   5.5186  -2.9817 O.3            1 <1>                0.0000
      2 C2          -0.0937   4.1588  -2.9892 C.ar           1 <1>                0.0000
      3 C3          -0.0900   3.4712  -4.1983 C.ar           1 <1>                0.0000
      4 C4          -0.0714   2.0934  -4.2208 C.ar           1 <1>                0.0000
      5 C5          -0.0561   1.3755  -3.0291 C.ar           1 <1>                0.0000
      6 N6          -0.0367   0.0165  -2.7608 N.pl3          1 <1>                0.0000
      7 H7          -0.0307  -0.6810  -3.4348 H              1 <1>                0.0000
      8 C8          -0.0272  -0.2039  -1.3976 C.ar           1 <1>                0.0000
      9 C9          -0.0080  -1.3717  -0.6462 C.ar           1 <1>                0.0000
     10 C10         -0.0024  -1.3164   0.7459 C.ar           1 <1>                0.0000
     11 C11         -0.0158  -0.0779   1.3993 C.ar           1 <1>                0.0000
     12 C12         -0.0150   0.3377   2.8129 C.2            1 <1>                0.0000
     13 O13         -0.0005  -0.4091   3.7713 O.2            1 <1>                0.0000
     14 N14         -0.0324   1.6817   2.8655 N.am           1 <1>                0.0000
     15 C15         -0.0449   2.2119   1.6293 C.2            1 <1>                0.0000
     16 O16         -0.0617   3.3978   1.3661 O.2            1 <1>                0.0000
     17 C17         -0.0348   1.1112   0.6467 C.ar           1 <1>                0.0000
     18 C18         -0.0407   1.0478  -0.7476 C.ar           1 <1>                0.0000
     19 C19         -0.0593   2.0681  -1.8087 C.ar           1 <1>                0.0000
     20 C20         -0.0729   3.4626  -1.7954 C.ar           1 <1>                0.0000
     21 C21          0.0171  -2.5695   1.5360 C.ar           1 <1>                0.0000
     22 C22          0.9441  -2.7341   2.5648 C.ar           1 <1>                0.0000
     23 C23          0.9571  -3.9033   3.2975 C.ar           1 <1>                0.0000
     24 C24          0.0533  -4.9113   3.0129 C.ar           1 <1>                0.0000
     25 C25         -0.8683  -4.7541   1.9932 C.ar           1 <1>                0.0000
     26 C26         -0.8952  -3.5870   1.2576 C.ar           1 <1>                0.0000
     27 H27          0.7658   5.9239  -2.9879 H              1 <1>                0.0000
     28 H28         -0.1022   4.0218  -5.1273 H              1 <1>                0.0000
     29 H29         -0.0690   1.5698  -5.1654 H              1 <1>                0.0000
     30 H30          0.0024  -2.3297  -1.1446 H              1 <1>                0.0000
     31 H31         -0.0359   2.1996   3.6857 H              1 <1>                0.0000
     32 H32         -0.0712   3.9961  -0.8563 H              1 <1>                0.0000
     33 H33          1.6506  -1.9481   2.7874 H              1 <1>                0.0000
     34 H34          1.6745  -4.0319   4.0945 H              1 <1>                0.0000
     35 H35          0.0676  -5.8248   3.5888 H              1 <1>                0.0000
     36 H36         -1.5709  -5.5448   1.7752 H              1 <1>                0.0000
     37 H37         -1.6151  -3.4654   0.4618 H              1 <1>                0.0000
@<TRIPOS>BOND
    1    1    2 1     
    2    1   27 1     
    3    2   20 ar    
    4    2    3 ar    
    5    3    4 ar    
    6    3   28 1     
    7    4    5 ar    
    8    4   29 1     
    9    5   19 ar    
   10    5    6 1     
   11    6    7 1     
   12    6    8 1     
   13    8   18 ar    
   14    8    9 ar    
   15    9   10 ar    
   16    9   30 1     
   17   10   11 ar    
   18   10   21 1     
   19   11   17 ar    
   20   11   12 1     
   21   12   13 2     
   22   12   14 am    
   23   14   15 am    
   24   14   31 1     
   25   15   16 2     
   26   15   17 1     
   27   17   18 ar    
   28   18   19 1     
   29   19   20 ar    
   30   20   32 1     
   31   21   26 ar    
   32   21   22 ar    
   33   22   23 ar    
   34   22   33 1     
   35   23   24 ar    
   36   23   34 1     
   37   24   25 ar    
   38   24   35 1     
   39   25   26 ar    
   40   25   36 1     
   41   26   37 1     
@<TRIPOS>SUBSTRUCTURE
      1 ****           1
@<TRIPOS>SET
DONOR_HYDROGENS      STATIC     ATOMS    <user>   **** ""
3 27 7 31
ATOM$RED        STATIC     ATOMS    COLORGROUP SYSTEM
3 27 7 31
