#       Name:                8MC
#       Creating user name   gbret
#       Creation time:       Fri Sep  9 03:00:41 2016


#       File generated by GOLD software.
#

@<TRIPOS>MOLECULE
8MC
    26    27     1
SMALL
NO_CHARGES


@<TRIPOS>ATOM
      1 C1          -1.8413   2.7657   2.8653 C.3            1 <1>                0.0000
      2 O2          -1.8219   1.3368   2.8574 O.3            1 <1>                0.0000
      3 C3          -1.2189   0.7345   1.8009 C.ar           1 <1>                0.0000
      4 C4          -0.6514   1.5124   0.7933 C.ar           1 <1>                0.0000
      5 C5          -0.0419   0.9219  -0.2754 C.ar           1 <1>                0.0000
      6 C6           0.0140  -0.4741  -0.3602 C.ar           1 <1>                0.0000
      7 C7           0.6619  -1.1352  -1.4949 C.2            1 <1>                0.0000
      8 C8           1.2877  -0.3308  -2.6051 C.3            1 <1>                0.0000
      9 C9           2.6941   0.0489  -2.2191 C.2            1 <1>                0.0000
     10 O10          3.1464  -0.3013  -1.1423 O.co2          1 <1>                0.0000
     11 O11          3.3797   0.7061  -2.9836 O.co2          1 <1>                0.0000
     12 C12          0.6839  -2.4932  -1.5194 C.2            1 <1>                0.0000
     13 C13          0.0918  -3.2233  -0.4684 C.2            1 <1>                0.0000
     14 O14          0.1185  -4.4405  -0.5028 O.2            1 <1>                0.0000
     15 O15         -0.5001  -2.6112   0.5692 O.3            1 <1>                0.0000
     16 C16         -0.5569  -1.2648   0.6542 C.ar           1 <1>                0.0000
     17 C17         -1.1677  -0.6482   1.7359 C.ar           1 <1>                0.0000
     18 H18         -0.8187   3.1430   2.8575 H              1 <1>                0.0000
     19 H19         -2.3685   3.1268   1.9822 H              1 <1>                0.0000
     20 H20         -2.3515   3.1172   3.7621 H              1 <1>                0.0000
     21 H21         -0.6945   2.5895   0.8586 H              1 <1>                0.0000
     22 H22          0.3955   1.5298  -1.0535 H              1 <1>                0.0000
     23 H23          1.3097  -0.9266  -3.5176 H              1 <1>                0.0000
     24 H24          0.7012   0.5721  -2.7747 H              1 <1>                0.0000
     25 H25          1.1534  -3.0124  -2.3419 H              1 <1>                0.0000
     26 H26         -1.6055  -1.2441   2.5230 H              1 <1>                0.0000
@<TRIPOS>BOND
    1    1    2 1     
    2    1   18 1     
    3    1   19 1     
    4    1   20 1     
    5    2    3 1     
    6    3   17 ar    
    7    3    4 ar    
    8    4    5 ar    
    9    4   21 1     
   10    5    6 ar    
   11    5   22 1     
   12    6   16 ar    
   13    6    7 1     
   14    7    8 1     
   15    7   12 2     
   16    8    9 1     
   17    8   23 1     
   18    8   24 1     
   19    9   10 ar    
   20    9   11 ar    
   21   12   13 1     
   22   12   25 1     
   23   13   14 2     
   24   13   15 1     
   25   15   16 1     
   26   16   17 ar    
   27   17   26 1     
@<TRIPOS>SUBSTRUCTURE
      1 ****           1
