#       Name:                9AM
#       Creating user name   gbret
#       Creation time:       Fri Sep  9 03:10:48 2016


#       File generated by GOLD software.
#

@<TRIPOS>MOLECULE
9AM
    38    38     1
SMALL
NO_CHARGES


@<TRIPOS>ATOM
      1 C1          -0.8223   3.2728   2.5635 C.3            1 <1>                0.0000
      2 C2          -0.8018   1.7659   2.5552 C.2            1 <1>                0.0000
      3 O3          -0.7836   1.1540   3.6021 O.2            1 <1>                0.0000
      4 N4          -0.8038   1.0984   1.3844 N.am           1 <1>                0.0000
      5 C5          -0.7840  -0.3665   1.3763 C.3            1 <1>                0.0000
      6 C6          -2.2152  -0.9032   1.4827 C.3            1 <1>                0.0000
      7 O7          -2.9026  -0.2221   2.5342 O.3            1 <1>                0.0000
      8 C8          -2.9348  -0.6729   0.1815 C.2            1 <1>                0.0000
      9 C9          -2.2898  -0.4115  -0.9475 C.2            1 <1>                0.0000
     10 O10         -0.9395  -0.3230  -1.0229 O.3            1 <1>                0.0000
     11 C11         -0.1789  -0.8686   0.0583 C.3            1 <1>                0.0000
     12 C12          1.2759  -0.4077  -0.0506 C.3            1 <1>                0.0000
     13 O13          2.0314  -0.9554   1.0317 O.3            1 <1>                0.0000
     14 C14          1.8651  -0.8882  -1.3783 C.3            1 <1>                0.0000
     15 O15          1.1096  -0.3405  -2.4606 O.3            1 <1>                0.0000
     16 C16          3.3200  -0.4273  -1.4872 C.3            1 <1>                0.0000
     17 N17          3.8856  -0.8887  -2.7620 N.4            1 <1>                0.0000
     18 H18          3.8481  -1.8962  -2.8016 H              1 <1>                0.0000
     19 H19          3.3522  -0.5020  -3.5262 H              1 <1>                0.0000
     20 H20          4.8451  -0.5848  -2.8339 H              1 <1>                0.0000
     21 C21         -3.0762  -0.2089  -2.1744 C.2            1 <1>                0.0000
     22 O22         -4.2969  -0.2830  -2.1379 O.co2          1 <1>                0.0000
     23 O23         -2.5094   0.0338  -3.2313 O.co2          1 <1>                0.0000
     24 H24          0.2003   3.6501   2.5558 H              1 <1>                0.0000
     25 H25         -1.3494   3.6339   1.6804 H              1 <1>                0.0000
     26 H26         -1.3325   3.6243   3.4603 H              1 <1>                0.0000
     27 H27         -0.8184   1.5878   0.5471 H              1 <1>                0.0000
     28 H28         -0.1909  -0.7306   2.2153 H              1 <1>                0.0000
     29 H29         -2.1877  -1.9712   1.6987 H              1 <1>                0.0000
     30 H30         -3.8167  -0.5117   2.6588 H              1 <1>                0.0000
     31 H31         -4.0135  -0.7225   0.1663 H              1 <1>                0.0000
     32 H32         -0.2233  -1.9572   0.0261 H              1 <1>                0.0000
     33 H33          1.3165   0.6807  -0.0078 H              1 <1>                0.0000
     34 H34          2.0394  -1.9221   1.0563 H              1 <1>                0.0000
     35 H35          1.8246  -1.9766  -1.4211 H              1 <1>                0.0000
     36 H36          1.1017   0.6261  -2.4852 H              1 <1>                0.0000
     37 H37          3.3605   0.6611  -1.4445 H              1 <1>                0.0000
     38 H38          3.8962  -0.8451  -0.6617 H              1 <1>                0.0000
@<TRIPOS>BOND
    1    1    2 1     
    2    1   24 1     
    3    1   25 1     
    4    1   26 1     
    5    2    3 2     
    6    2    4 am    
    7    4    5 1     
    8    4   27 1     
    9    5   11 1     
   10    5    6 1     
   11    5   28 1     
   12    6    7 1     
   13    6    8 1     
   14    6   29 1     
   15    7   30 1     
   16    8    9 2     
   17    8   31 1     
   18    9   10 1     
   19    9   21 1     
   20   10   11 1     
   21   11   12 1     
   22   11   32 1     
   23   12   13 1     
   24   12   14 1     
   25   12   33 1     
   26   13   34 1     
   27   14   15 1     
   28   14   16 1     
   29   14   35 1     
   30   15   36 1     
   31   16   17 1     
   32   16   37 1     
   33   16   38 1     
   34   17   18 1     
   35   17   19 1     
   36   17   20 1     
   37   21   22 ar    
   38   21   23 ar    
@<TRIPOS>SUBSTRUCTURE
      1 ****           1
@<TRIPOS>SET
DONOR_HYDROGENS      STATIC     ATOMS    <user>   **** ""
7 27 30 34 36 18 19 20
ATOM$RED        STATIC     ATOMS    COLORGROUP SYSTEM
7 27 30 34 36 18 19 20
