#       Name:                9AP
#       Creating user name   gbret
#       Creation time:       Fri Sep  9 03:10:52 2016


#       File generated by GOLD software.
#

@<TRIPOS>MOLECULE
9AP
    26    28     1
SMALL
NO_CHARGES


@<TRIPOS>ATOM
      1 N1          -0.4599   3.2549   0.0199 N.pl3          1 <1>                0.0000
      2 C2          -0.4410   1.8618   0.0122 C.ar           1 <1>                0.0000
      3 C3          -1.6102   1.1729   0.0141 C.ar           1 <1>                0.0000
      4 C4          -1.6342  -0.2390   0.0070 C.ar           1 <1>                0.0000
      5 C5          -2.8563  -0.9305   0.0091 C.ar           1 <1>                0.0000
      6 C6          -2.8645  -2.2938   0.0018 C.ar           1 <1>                0.0000
      7 C7          -1.6759  -3.0144  -0.0076 C.ar           1 <1>                0.0000
      8 C8          -0.4710  -2.3722  -0.0094 C.ar           1 <1>                0.0000
      9 C9          -0.4284  -0.9758  -0.0026 C.ar           1 <1>                0.0000
     10 C10          0.8502  -0.2583  -0.0049 C.ar           1 <1>                0.0000
     11 C11          2.0694  -0.9390  -0.0141 C.ar           1 <1>                0.0000
     12 C12          3.2383  -0.2323  -0.0165 C.ar           1 <1>                0.0000
     13 C13          3.2292   1.1574  -0.0098 C.ar           1 <1>                0.0000
     14 C14          2.0529   1.8499  -0.0003 C.ar           1 <1>                0.0000
     15 C15          0.8387   1.1539  -0.0038 C.ar           1 <1>                0.0000
     16 H16          0.3734   3.7513   0.0147 H              1 <1>                0.0000
     17 H17         -1.3065   3.7284   0.0265 H              1 <1>                0.0000
     18 H18         -2.5433   1.7166   0.0215 H              1 <1>                0.0000
     19 H19         -3.7875  -0.3836   0.0167 H              1 <1>                0.0000
     20 H20         -3.8072  -2.8210   0.0038 H              1 <1>                0.0000
     21 H21         -1.7058  -4.0940  -0.0132 H              1 <1>                0.0000
     22 H22          0.4464  -2.9420  -0.0164 H              1 <1>                0.0000
     23 H23          2.0881  -2.0189  -0.0190 H              1 <1>                0.0000
     24 H24          4.1807  -0.7597  -0.0232 H              1 <1>                0.0000
     25 H25          4.1650   1.6965  -0.0118 H              1 <1>                0.0000
     26 H26          2.0591   2.9299   0.0051 H              1 <1>                0.0000
@<TRIPOS>BOND
    1    1    2 1     
    2    1   16 1     
    3    1   17 1     
    4    2   15 ar    
    5    2    3 ar    
    6    3    4 ar    
    7    3   18 1     
    8    4    9 ar    
    9    4    5 ar    
   10    5    6 ar    
   11    5   19 1     
   12    6    7 ar    
   13    6   20 1     
   14    7    8 ar    
   15    7   21 1     
   16    8    9 ar    
   17    8   22 1     
   18    9   10 ar    
   19   10   15 ar    
   20   10   11 ar    
   21   11   12 ar    
   22   11   23 1     
   23   12   13 ar    
   24   12   24 1     
   25   13   14 ar    
   26   13   25 1     
   27   14   15 ar    
   28   14   26 1     
@<TRIPOS>SUBSTRUCTURE
      1 ****           1
@<TRIPOS>SET
DONOR_HYDROGENS      STATIC     ATOMS    <user>   **** ""
2 16 17
ATOM$RED        STATIC     ATOMS    COLORGROUP SYSTEM
2 16 17
