#       Name:                9BD
#       Creating user name   gbret
#       Creation time:       Fri Sep  9 03:11:16 2016


#       File generated by GOLD software.
#

@<TRIPOS>MOLECULE
9BD
    46    49     1
SMALL
NO_CHARGES


@<TRIPOS>ATOM
      1 C1          -0.2912   7.5008  -1.8924 C.3            1 <1>                0.0000
      2 O2          -0.2718   6.0719  -1.9003 O.3            1 <1>                0.0000
      3 C3          -1.5692   5.4730  -1.8911 C.3            1 <1>                0.0000
      4 C4          -1.4277   3.9496  -1.9006 C.3            1 <1>                0.0000
      5 O5          -0.8051   3.5214  -0.6878 O.3            1 <1>                0.0000
      6 C6          -0.6041   2.1859  -0.5355 C.ar           1 <1>                0.0000
      7 C7          -0.9931   1.3200  -1.5332 C.ar           1 <1>                0.0000
      8 C8          -0.7889  -0.0585  -1.3829 C.ar           1 <1>                0.0000
      9 N9          -1.1630  -0.9159  -2.3484 N.ar           1 <1>                0.0000
     10 C10         -0.9987  -2.2079  -2.2659 C.ar           1 <1>                0.0000
     11 C11         -0.4070  -2.8070  -1.1391 C.ar           1 <1>                0.0000
     12 C12         -0.2206  -4.1987  -1.0316 C.ar           1 <1>                0.0000
     13 N13         -0.6253  -5.0331  -2.0583 N.pl3          1 <1>                0.0000
     14 N14          0.3418  -4.7066   0.0512 N.ar           1 <1>                0.0000
     15 C15          0.7495  -3.9533   1.0664 C.ar           1 <1>                0.0000
     16 C16          0.6065  -2.5766   1.0475 C.ar           1 <1>                0.0000
     17 C17          0.0202  -1.9821  -0.0681 C.ar           1 <1>                0.0000
     18 C18         -0.1813  -0.5386  -0.1981 C.ar           1 <1>                0.0000
     19 C19          0.2061   0.3525   0.8024 C.ar           1 <1>                0.0000
     20 C20          0.0014   1.7053   0.6311 C.ar           1 <1>                0.0000
     21 O21          0.3785   2.5754   1.6055 O.3            1 <1>                0.0000
     22 C22          0.9790   2.0179   2.7763 C.3            1 <1>                0.0000
     23 N23          1.3351  -4.5642   2.1784 N.pl3          1 <1>                0.0000
     24 C24          1.6402  -5.8950   2.3118 C.2            1 <1>                0.0000
     25 C25          2.1866  -6.0492   3.5324 C.2            1 <1>                0.0000
     26 N26          2.2174  -4.8498   4.1327 N.2            1 <1>                0.0000
     27 C27          1.7159  -3.9512   3.3305 C.2            1 <1>                0.0000
     28 H28          0.7314   7.8781  -1.9002 H              1 <1>                0.0000
     29 H29         -0.8184   7.8619  -2.7755 H              1 <1>                0.0000
     30 H30         -0.8014   7.8523  -0.9956 H              1 <1>                0.0000
     31 H31         -2.1059   5.7824  -0.9943 H              1 <1>                0.0000
     32 H32         -2.1229   5.7920  -2.7741 H              1 <1>                0.0000
     33 H33         -2.4143   3.4936  -1.9832 H              1 <1>                0.0000
     34 H34         -0.8153   3.6469  -2.7500 H              1 <1>                0.0000
     35 H35         -1.4558   1.7029  -2.4308 H              1 <1>                0.0000
     36 H36         -1.3256  -2.8332  -3.0835 H              1 <1>                0.0000
     37 H37         -1.0377  -4.6596  -2.8528 H              1 <1>                0.0000
     38 H38         -0.4966  -5.9916  -1.9836 H              1 <1>                0.0000
     39 H39          0.9421  -1.9759   1.8800 H              1 <1>                0.0000
     40 H40          0.6690  -0.0153   1.7062 H              1 <1>                0.0000
     41 H41          0.2788   1.3311   3.2518 H              1 <1>                0.0000
     42 H42          1.8847   1.4788   2.4985 H              1 <1>                0.0000
     43 H43          1.2315   2.8185   3.4715 H              1 <1>                0.0000
     44 H44          1.4738  -6.6702   1.5785 H              1 <1>                0.0000
     45 H45          2.5392  -6.9782   3.9555 H              1 <1>                0.0000
     46 H46          1.6138  -2.8983   3.5480 H              1 <1>                0.0000
@<TRIPOS>BOND
    1    1    2 1     
    2    1   28 1     
    3    1   29 1     
    4    1   30 1     
    5    2    3 1     
    6    3    4 1     
    7    3   31 1     
    8    3   32 1     
    9    4    5 1     
   10    4   33 1     
   11    4   34 1     
   12    5    6 1     
   13    6   20 ar    
   14    6    7 ar    
   15    7    8 ar    
   16    7   35 1     
   17    8   18 ar    
   18    8    9 ar    
   19    9   10 ar    
   20   10   11 ar    
   21   10   36 1     
   22   11   17 ar    
   23   11   12 ar    
   24   12   13 1     
   25   12   14 ar    
   26   13   37 1     
   27   13   38 1     
   28   14   15 ar    
   29   15   16 ar    
   30   15   23 1     
   31   16   17 ar    
   32   16   39 1     
   33   17   18 ar    
   34   18   19 ar    
   35   19   20 ar    
   36   19   40 1     
   37   20   21 1     
   38   21   22 1     
   39   22   41 1     
   40   22   42 1     
   41   22   43 1     
   42   23   27 1     
   43   23   24 1     
   44   24   25 2     
   45   24   44 1     
   46   25   26 1     
   47   25   45 1     
   48   26   27 2     
   49   27   46 1     
@<TRIPOS>SUBSTRUCTURE
      1 ****           1
@<TRIPOS>SET
DONOR_HYDROGENS      STATIC     ATOMS    <user>   **** ""
2 37 38
ATOM$RED        STATIC     ATOMS    COLORGROUP SYSTEM
2 37 38
