#       Name:                9MZ
#       Creating user name   gbret
#       Creation time:       Fri Sep  9 03:14:41 2016


#       File generated by GOLD software.
#

@<TRIPOS>MOLECULE
9MZ
    46    48     1
SMALL
NO_CHARGES


@<TRIPOS>ATOM
      1 O1           0.6497  -3.1951  -4.6099 O.3            1 <1>                0.0000
      2 C2           0.6633  -4.5530  -4.6239 C.ar           1 <1>                0.0000
      3 C3           0.6695  -5.2363  -5.8289 C.ar           1 <1>                0.0000
      4 C4           0.6833  -6.6182  -5.8421 C.ar           1 <1>                0.0000
      5 C5           0.6916  -7.3297  -4.6544 C.ar           1 <1>                0.0000
      6 C6           0.6856  -6.6656  -3.4459 C.ar           1 <1>                0.0000
      7 C7           0.6770  -5.2691  -3.4191 C.ar           1 <1>                0.0000
      8 C8           0.6705  -4.5527  -2.1312 C.2            1 <1>                0.0000
      9 N9           0.6625  -3.2547  -2.1105 N.2            1 <1>                0.0000
     10 N10          0.6564  -2.5737  -0.8862 N.pl3          1 <1>                0.0000
     11 C11          0.6480  -1.2092  -0.8644 C.2            1 <1>                0.0000
     12 N12          0.6390  -0.4153  -1.9131 N.am           1 <1>                0.0000
     13 H13          0.6386  -0.8096  -2.7993 H              1 <1>                0.0000
     14 C14          0.6302   0.8845  -1.8015 C.2            1 <1>                0.0000
     15 O15          0.6211   1.6333  -2.7592 O.2            1 <1>                0.0000
     16 C16          0.6319   1.3742  -0.3682 C.3            1 <1>                0.0000
     17 C17         -0.6325   2.1818  -0.0686 C.3            1 <1>                0.0000
     18 C18         -0.5440   2.7564   1.3218 C.2            1 <1>                0.0000
     19 O19          0.4343   2.5411   2.0057 O.2            1 <1>                0.0000
     20 N20         -1.5518   3.5094   1.8052 N.am           1 <1>                0.0000
     21 C21         -1.5143   3.9621   3.1287 C.ar           1 <1>                0.0000
     22 C22         -2.6885   4.0610   3.8639 C.ar           1 <1>                0.0000
     23 C23         -2.6482   4.5082   5.1697 C.ar           1 <1>                0.0000
     24 C24         -1.4402   4.8578   5.7455 C.ar           1 <1>                0.0000
     25 C25         -0.2697   4.7610   5.0162 C.ar           1 <1>                0.0000
     26 C26         -0.3025   4.3081   3.7116 C.ar           1 <1>                0.0000
     27 C27          1.0443   5.1435   5.6473 C.3            1 <1>                0.0000
     28 F28          0.8248   5.5615   6.9642 F              1 <1>                0.0000
     29 F29          1.9017   4.0380   5.6457 F              1 <1>                0.0000
     30 F30          1.6260   6.1859   4.9179 F              1 <1>                0.0000
     31 S31          0.6394  -0.1842   0.5832 S.3            1 <1>                0.0000
     32 H32          1.5291  -2.7929  -4.6107 H              1 <1>                0.0000
     33 H33          0.6631  -4.6882  -6.7595 H              1 <1>                0.0000
     34 H34          0.6874  -7.1461  -6.7843 H              1 <1>                0.0000
     35 H35          0.7024  -8.4095  -4.6745 H              1 <1>                0.0000
     36 H36          0.6913  -7.2243  -2.5217 H              1 <1>                0.0000
     37 H37          0.6725  -5.1075  -1.2046 H              1 <1>                0.0000
     38 H38          0.6582  -3.0720  -0.0540 H              1 <1>                0.0000
     39 H39          1.5244   1.9651  -0.1622 H              1 <1>                0.0000
     40 H40         -0.7258   2.9923  -0.7914 H              1 <1>                0.0000
     41 H41         -1.5042   1.5311  -0.1380 H              1 <1>                0.0000
     42 H42         -2.3031   3.7376   1.2356 H              1 <1>                0.0000
     43 H43         -3.6322   3.7888   3.4146 H              1 <1>                0.0000
     44 H44         -3.5609   4.5853   5.7420 H              1 <1>                0.0000
     45 H45         -1.4114   5.2076   6.7669 H              1 <1>                0.0000
     46 H46          0.6123   4.2323   3.1425 H              1 <1>                0.0000
@<TRIPOS>BOND
    1    1    2 1     
    2    1   32 1     
    3    2    7 ar    
    4    2    3 ar    
    5    3    4 ar    
    6    3   33 1     
    7    4    5 ar    
    8    4   34 1     
    9    5    6 ar    
   10    5   35 1     
   11    6    7 ar    
   12    6   36 1     
   13    7    8 1     
   14    8    9 2     
   15    8   37 1     
   16    9   10 1     
   17   10   11 2     
   18   10   38 1     
   19   11   31 1     
   20   11   12 1     
   21   12   13 1     
   22   12   14 am    
   23   14   15 2     
   24   14   16 1     
   25   16   17 1     
   26   16   31 1     
   27   16   39 1     
   28   17   18 1     
   29   17   40 1     
   30   17   41 1     
   31   18   19 2     
   32   18   20 am    
   33   20   21 1     
   34   20   42 1     
   35   21   26 ar    
   36   21   22 ar    
   37   22   23 ar    
   38   22   43 1     
   39   23   24 ar    
   40   23   44 1     
   41   24   25 ar    
   42   24   45 1     
   43   25   26 ar    
   44   25   27 1     
   45   26   46 1     
   46   27   28 1     
   47   27   29 1     
   48   27   30 1     
@<TRIPOS>SUBSTRUCTURE
      1 ****           1
@<TRIPOS>SET
DONOR_HYDROGENS      STATIC     ATOMS    <user>   **** ""
4 32 38 13 42
ATOM$RED        STATIC     ATOMS    COLORGROUP SYSTEM
4 32 38 13 42
