#       Name:                9PR
#       Creating user name   gbret
#       Creation time:       Fri Sep  9 03:15:54 2016


#       File generated by GOLD software.
#

@<TRIPOS>MOLECULE
9PR
    22    22     1
SMALL
NO_CHARGES


@<TRIPOS>ATOM
      1 C1          -0.1949   3.2788   1.2698 C.3            1 <1>                0.0000
      2 N2          -0.1750   1.8139   1.2617 N.am           1 <1>                0.0000
      3 C3           0.4080   1.1535   0.2417 C.2            1 <1>                0.0000
      4 O4           0.9162   1.7719  -0.6695 O.2            1 <1>                0.0000
      5 C5           0.4284  -0.3533   0.2334 C.3            1 <1>                0.0000
      6 C6          -1.0126  -0.9117   0.1271 C.3            1 <1>                0.0000
      7 C7          -0.7608  -2.3143  -0.4861 C.3            1 <1>                0.0000
      8 C8           0.4251  -2.0679  -1.4424 C.3            1 <1>                0.0000
      9 N9           1.1168  -0.8521  -0.9762 N.4            1 <1>                0.0000
     10 H10          1.0885  -0.1475  -1.6978 H              1 <1>                0.0000
     11 H11          2.0759  -1.0718  -0.7524 H              1 <1>                0.0000
     12 H12          0.8277   3.6561   1.2620 H              1 <1>                0.0000
     13 H13         -0.7221   3.6399   0.3867 H              1 <1>                0.0000
     14 H14         -0.7051   3.6303   2.1666 H              1 <1>                0.0000
     15 H15         -0.5815   1.3194   1.9905 H              1 <1>                0.0000
     16 H16          0.9180  -0.7304   1.1313 H              1 <1>                0.0000
     17 H17         -1.4735  -0.9929   1.1115 H              1 <1>                0.0000
     18 H18         -1.6209  -0.2984  -0.5378 H              1 <1>                0.0000
     19 H19         -0.4883  -3.0305   0.2891 H              1 <1>                0.0000
     20 H20         -1.6362  -2.6565  -1.0380 H              1 <1>                0.0000
     21 H21          1.1077  -2.9172  -1.4131 H              1 <1>                0.0000
     22 H22          0.0579  -1.9193  -2.4578 H              1 <1>                0.0000
@<TRIPOS>BOND
    1    1    2 1     
    2    1   12 1     
    3    1   13 1     
    4    1   14 1     
    5    2    3 am    
    6    2   15 1     
    7    3    4 2     
    8    3    5 1     
    9    5    9 1     
   10    5    6 1     
   11    5   16 1     
   12    6    7 1     
   13    6   17 1     
   14    6   18 1     
   15    7    8 1     
   16    7   19 1     
   17    7   20 1     
   18    8    9 1     
   19    8   21 1     
   20    8   22 1     
   21    9   10 1     
   22    9   11 1     
@<TRIPOS>SUBSTRUCTURE
      1 ****           1
@<TRIPOS>SET
DONOR_HYDROGENS      STATIC     ATOMS    <user>   **** ""
3 15 10 11
ATOM$RED        STATIC     ATOMS    COLORGROUP SYSTEM
3 15 10 11
