#       Name:                A41
#       Creating user name   gbret
#       Creation time:       Fri Sep  9 03:23:10 2016


#       File generated by GOLD software.
#

@<TRIPOS>MOLECULE
A41
    32    33     1
SMALL
NO_CHARGES


@<TRIPOS>ATOM
      1 C1          -0.9961   4.1960   0.6128 C.3            1 <1>                0.0000
      2 C2          -1.1578   2.7027   0.4904 C.ar           1 <1>                0.0000
      3 C3          -1.2548   2.1203  -0.7644 C.ar           1 <1>                0.0000
      4 C4          -1.4027   0.7550  -0.8922 C.ar           1 <1>                0.0000
      5 C5          -1.4560  -0.0488   0.2404 C.ar           1 <1>                0.0000
      6 N6          -1.6046  -1.4222   0.1147 N.pl3          1 <1>                0.0000
      7 S7          -0.8820  -2.2216  -1.1427 S.o2           1 <1>                0.0000
      8 O8          -1.1010  -3.6072  -0.9162 O.2            1 <1>                0.0000
      9 O9          -1.2890  -1.5542  -2.3294 O.2            1 <1>                0.0000
     10 C10          0.8547  -1.9619  -0.9966 C.ar           1 <1>                0.0000
     11 C11          1.4450  -0.8736  -1.6115 C.ar           1 <1>                0.0000
     12 C12          2.8074  -0.6699  -1.4969 C.ar           1 <1>                0.0000
     13 C13          3.5795  -1.5543  -0.7670 C.ar           1 <1>                0.0000
     14 C14          2.9891  -2.6421  -0.1514 C.ar           1 <1>                0.0000
     15 C15          1.6260  -2.8434  -0.2625 C.ar           1 <1>                0.0000
     16 C16         -1.3580   0.5377   1.5136 C.ar           1 <1>                0.0000
     17 C17         -1.2026   1.9239   1.6246 C.ar           1 <1>                0.0000
     18 C18         -1.4133  -0.3000   2.7208 C.2            1 <1>                0.0000
     19 O19         -1.3275   0.2151   3.8273 O.co2          1 <1>                0.0000
     20 O20         -1.5450  -1.5122   2.6187 O.co2          1 <1>                0.0000
     21 H21          0.0643   4.4481   0.6086 H              1 <1>                0.0000
     22 H22         -1.4891   4.6849  -0.2275 H              1 <1>                0.0000
     23 H23         -1.4465   4.5349   1.5457 H              1 <1>                0.0000
     24 H24         -1.2147   2.7403  -1.6479 H              1 <1>                0.0000
     25 H25         -1.4774   0.3100  -1.8734 H              1 <1>                0.0000
     26 H26         -2.1318  -1.9144   0.7633 H              1 <1>                0.0000
     27 H27          0.8417  -0.1827  -2.1817 H              1 <1>                0.0000
     28 H28          3.2687   0.1799  -1.9779 H              1 <1>                0.0000
     29 H29          4.6441  -1.3955  -0.6781 H              1 <1>                0.0000
     30 H30          3.5924  -3.3332   0.4185 H              1 <1>                0.0000
     31 H31          1.1647  -3.6933   0.2185 H              1 <1>                0.0000
     32 H32         -1.1262   2.3831   2.5991 H              1 <1>                0.0000
@<TRIPOS>BOND
    1    1    2 1     
    2    1   21 1     
    3    1   22 1     
    4    1   23 1     
    5    2   17 ar    
    6    2    3 ar    
    7    3    4 ar    
    8    3   24 1     
    9    4    5 ar    
   10    4   25 1     
   11    5    6 1     
   12    5   16 ar    
   13    6    7 1     
   14    6   26 1     
   15    7    8 2     
   16    7    9 2     
   17    7   10 1     
   18   10   15 ar    
   19   10   11 ar    
   20   11   12 ar    
   21   11   27 1     
   22   12   13 ar    
   23   12   28 1     
   24   13   14 ar    
   25   13   29 1     
   26   14   15 ar    
   27   14   30 1     
   28   15   31 1     
   29   16   17 ar    
   30   16   18 1     
   31   17   32 1     
   32   18   19 ar    
   33   18   20 ar    
@<TRIPOS>SUBSTRUCTURE
      1 ****           1
@<TRIPOS>SET
DONOR_HYDROGENS      STATIC     ATOMS    <user>   **** ""
1 26
ATOM$RED        STATIC     ATOMS    COLORGROUP SYSTEM
1 26
