#       Name:                A4L
#       Creating user name   gbret
#       Creation time:       Fri Sep  9 03:24:00 2016


#       File generated by GOLD software.
#

@<TRIPOS>MOLECULE
A4L
   142   144     1
SMALL
NO_CHARGES


@<TRIPOS>ATOM
      1 C1          -7.9905   6.1771   4.6671 C.3            1 <1>                0.0000
      2 O2          -6.8241   6.4853   3.9013 O.3            1 <1>                0.0000
      3 C3          -6.8700   7.6038   3.1298 C.ar           1 <1>                0.0000
      4 C4          -8.0262   8.3918   3.1212 C.ar           1 <1>                0.0000
      5 C5          -8.1029   9.5147   2.3612 C.ar           1 <1>                0.0000
      6 C6          -7.0054   9.9030   1.5635 C.ar           1 <1>                0.0000
      7 N7          -7.0840  11.0067   0.8188 N.pl3          1 <1>                0.0000
      8 H8          -7.9002  11.5306   0.8364 H              1 <1>                0.0000
      9 C9          -6.0738  11.4087   0.0530 C.ar           1 <1>                0.0000
     10 C10         -6.1672  12.5767  -0.7294 C.ar           1 <1>                0.0000
     11 C11         -5.1118  12.9555  -1.4997 C.ar           1 <1>                0.0000
     12 Cl12        -5.2401  14.3970  -2.4584 Cl             1 <1>                0.0000
     13 C13         -3.9294  12.2171  -1.5396 C.ar           1 <1>                0.0000
     14 C14         -3.7762  11.0804  -0.8084 C.ar           1 <1>                0.0000
     15 C15         -4.8300  10.6365   0.0079 C.ar           1 <1>                0.0000
     16 C16         -4.7241   9.4688   0.7844 C.ar           1 <1>                0.0000
     17 N17         -3.5738   8.7074   0.7744 N.3            1 <1>                0.0000
     18 C18         -3.5784   7.7613  -0.3494 C.3            1 <1>                0.0000
     19 C19         -2.3537   6.8494  -0.2534 C.3            1 <1>                0.0000
     20 C20         -2.3584   5.8641  -1.4238 C.3            1 <1>                0.0000
     21 C21         -1.1337   4.9522  -1.3278 C.3            1 <1>                0.0000
     22 C22         -1.1385   3.9668  -2.4983 C.3            1 <1>                0.0000
     23 N23         -0.9772   4.7013  -3.7556 N.am           1 <1>                0.0000
     24 C24          0.1255   5.4481  -3.9631 C.2            1 <1>                0.0000
     25 C25          0.2914   6.2036  -5.2564 C.3            1 <1>                0.0000
     26 O26          0.9841   5.5120  -3.1090 O.2            1 <1>                0.0000
     27 C27         -0.0019   2.9904  -2.3376 C.2            1 <1>                0.0000
     28 O28          1.0254   3.1473  -2.9629 O.2            1 <1>                0.0000
     29 N29         -0.1270   1.9427  -1.4990 N.am           1 <1>                0.0000
     30 C30          0.9779   0.9935  -1.3428 C.3            1 <1>                0.0000
     31 C31          1.9621   1.5239  -0.2984 C.3            1 <1>                0.0000
     32 C32          2.6058   2.8132  -0.8127 C.3            1 <1>                0.0000
     33 C33          3.5901   3.3436   0.2317 C.3            1 <1>                0.0000
     34 C34          4.2337   4.6329  -0.2825 C.3            1 <1>                0.0000
     35 N35          5.1787   5.1422   0.7202 N.4            1 <1>                0.0000
     36 H36          5.6032   5.9924   0.3811 H              1 <1>                0.0000
     37 H37          4.6866   5.3318   1.5804 H              1 <1>                0.0000
     38 H38          5.8955   4.4521   0.8879 H              1 <1>                0.0000
     39 C39          0.4359  -0.3383  -0.8915 C.2            1 <1>                0.0000
     40 O40         -0.6893  -0.4175  -0.4597 O.2            1 <1>                0.0000
     41 C41          1.2861  -1.5545  -0.9778 C.2            1 <1>                0.0000
     42 O42          2.4114  -1.4753  -1.4097 O.2            1 <1>                0.0000
     43 C43          0.7442  -2.8863  -0.5266 C.3            1 <1>                0.0000
     44 C44         -0.1427  -3.4749  -1.6256 C.3            1 <1>                0.0000
     45 C45         -0.7920  -4.7650  -1.1207 C.3            1 <1>                0.0000
     46 C46         -1.6789  -5.3536  -2.2197 C.3            1 <1>                0.0000
     47 C47         -2.3282  -6.6437  -1.7149 C.3            1 <1>                0.0000
     48 N48         -3.1797  -7.2088  -2.7701 N.4            1 <1>                0.0000
     49 H49         -3.8983  -6.5440  -3.0144 H              1 <1>                0.0000
     50 H50         -2.6179  -7.4110  -3.5834 H              1 <1>                0.0000
     51 H51         -3.6079  -8.0596  -2.4371 H              1 <1>                0.0000
     52 N52          1.8570  -3.7999  -0.2555 N.am           1 <1>                0.0000
     53 C53          1.6934  -4.8246   0.6045 C.2            1 <1>                0.0000
     54 O54          0.6250  -4.9905   1.1539 O.2            1 <1>                0.0000
     55 C55          2.8380  -5.7643   0.8833 C.3            1 <1>                0.0000
     56 C56          4.0138  -4.9773   1.4655 C.3            1 <1>                0.0000
     57 C57          5.2173  -5.9071   1.6322 C.3            1 <1>                0.0000
     58 C58          6.3931  -5.1201   2.2144 C.3            1 <1>                0.0000
     59 C59          7.5967  -6.0499   2.3812 C.3            1 <1>                0.0000
     60 N60          8.7256  -5.2942   2.9402 N.4            1 <1>                0.0000
     61 H61          8.9675  -4.5397   2.3155 H              1 <1>                0.0000
     62 H62          8.4653  -4.9165   3.8389 H              1 <1>                0.0000
     63 H63          9.5193  -5.9075   3.0501 H              1 <1>                0.0000
     64 N64          2.4085  -6.7870   1.8464 N.3            1 <1>                0.0000
     65 N65          3.1232  -8.0354   1.6343 N.3            1 <1>                0.0000
     66 C66          2.6937  -9.0581   2.5974 C.3            1 <1>                0.0000
     67 C67          2.8291 -10.4441   1.9639 C.3            1 <1>                0.0000
     68 C68          1.8591 -10.5639   0.7867 C.3            1 <1>                0.0000
     69 C69          1.9946 -11.9500   0.1532 C.3            1 <1>                0.0000
     70 C70          1.0245 -12.0697  -1.0239 C.3            1 <1>                0.0000
     71 N71          1.1546 -13.4005  -1.6322 N.4            1 <1>                0.0000
     72 H72          0.5149 -13.4795  -2.4084 H              1 <1>                0.0000
     73 H73          2.0998 -13.5292  -1.9609 H              1 <1>                0.0000
     74 H74          0.9384 -14.1070  -0.9450 H              1 <1>                0.0000
     75 C75          3.5580  -8.9823   3.8295 C.2            1 <1>                0.0000
     76 O76          4.4407  -8.1611   3.8983 O.2            1 <1>                0.0000
     77 C77         -5.8340   9.1029   1.5734 C.ar           1 <1>                0.0000
     78 C78         -5.7863   7.9491   2.3764 C.ar           1 <1>                0.0000
     79 H79         -7.8207   5.2628   5.2357 H              1 <1>                0.0000
     80 H80         -8.2021   6.9974   5.3529 H              1 <1>                0.0000
     81 H81         -8.8384   6.0359   3.9969 H              1 <1>                0.0000
     82 H82         -8.8712   8.1022   3.7282 H              1 <1>                0.0000
     83 H83         -9.0038  10.1102   2.3670 H              1 <1>                0.0000
     84 H84         -7.0713  13.1675  -0.7180 H              1 <1>                0.0000
     85 H85         -3.1170  12.5553  -2.1656 H              1 <1>                0.0000
     86 H86         -2.8519  10.5236  -0.8549 H              1 <1>                0.0000
     87 H87         -2.7526   9.2931   0.7506 H              1 <1>                0.0000
     88 H88         -4.4850   7.1573  -0.3121 H              1 <1>                0.0000
     89 H89         -3.5478   8.3131  -1.2889 H              1 <1>                0.0000
     90 H90         -1.4471   7.4534  -0.2906 H              1 <1>                0.0000
     91 H91         -2.3843   6.2976   0.6862 H              1 <1>                0.0000
     92 H92         -3.2650   5.2600  -1.3866 H              1 <1>                0.0000
     93 H93         -2.3278   6.4159  -2.3634 H              1 <1>                0.0000
     94 H94         -0.2271   5.5562  -1.3651 H              1 <1>                0.0000
     95 H95         -1.1643   4.4004  -0.3883 H              1 <1>                0.0000
     96 H96         -2.0839   3.4247  -2.5130 H              1 <1>                0.0000
     97 H97         -1.6639   4.6502  -4.4387 H              1 <1>                0.0000
     98 H98         -0.5741   6.0258  -5.8947 H              1 <1>                0.0000
     99 H99          0.3748   7.2699  -5.0462 H              1 <1>                0.0000
    100 H100         1.1934   5.8617  -5.7638 H              1 <1>                0.0000
    101 H101        -0.9486   1.8172  -0.9989 H              1 <1>                0.0000
    102 H102         1.4907   0.8726  -2.2970 H              1 <1>                0.0000
    103 H103         1.4305   1.7288   0.6308 H              1 <1>                0.0000
    104 H104         2.7364   0.7785  -0.1172 H              1 <1>                0.0000
    105 H105         3.1374   2.6083  -1.7419 H              1 <1>                0.0000
    106 H106         1.8315   3.5587  -0.9938 H              1 <1>                0.0000
    107 H107         3.0584   3.5485   1.1610 H              1 <1>                0.0000
    108 H108         4.3644   2.5981   0.4129 H              1 <1>                0.0000
    109 H109         4.7653   4.4280  -1.2118 H              1 <1>                0.0000
    110 H110         3.4594   5.3783  -0.4637 H              1 <1>                0.0000
    111 H111         0.1562  -2.7506   0.3811 H              1 <1>                0.0000
    112 H112        -0.9190  -2.7567  -1.8896 H              1 <1>                0.0000
    113 H113         0.4642  -3.6933  -2.5043 H              1 <1>                0.0000
    114 H114        -0.0157  -5.4832  -0.8567 H              1 <1>                0.0000
    115 H115        -1.3989  -4.5466  -0.2421 H              1 <1>                0.0000
    116 H116        -2.4552  -4.6354  -2.4837 H              1 <1>                0.0000
    117 H117        -1.0720  -5.5720  -3.0984 H              1 <1>                0.0000
    118 H118        -1.5519  -7.3619  -1.4509 H              1 <1>                0.0000
    119 H119        -2.9351  -6.4253  -0.8362 H              1 <1>                0.0000
    120 H120         2.7115  -3.6672  -0.6950 H              1 <1>                0.0000
    121 H121         3.1470  -6.2459  -0.0445 H              1 <1>                0.0000
    122 H122         4.2752  -4.1622   0.7906 H              1 <1>                0.0000
    123 H123         3.7327  -4.5692   2.4363 H              1 <1>                0.0000
    124 H124         4.9560  -6.7222   2.3071 H              1 <1>                0.0000
    125 H125         5.4985  -6.3152   0.6614 H              1 <1>                0.0000
    126 H126         6.6545  -4.3050   1.5396 H              1 <1>                0.0000
    127 H127         6.1120  -4.7120   3.1853 H              1 <1>                0.0000
    128 H128         7.3353  -6.8650   3.0560 H              1 <1>                0.0000
    129 H129         7.8778  -6.4580   1.4103 H              1 <1>                0.0000
    130 H130         2.5229  -6.4615   2.7946 H              1 <1>                0.0000
    131 H131         3.0088  -8.3609   0.6861 H              1 <1>                0.0000
    132 H132         1.6533  -8.8843   2.8721 H              1 <1>                0.0000
    133 H133         3.8503 -10.5831   1.6088 H              1 <1>                0.0000
    134 H134         2.5956 -11.2073   2.7062 H              1 <1>                0.0000
    135 H135         0.8380 -10.4249   1.1418 H              1 <1>                0.0000
    136 H136         2.0927  -9.8007   0.0444 H              1 <1>                0.0000
    137 H137         3.0157 -12.0889  -0.2019 H              1 <1>                0.0000
    138 H138         1.7610 -12.7132   0.8956 H              1 <1>                0.0000
    139 H139         0.0034 -11.9307  -0.6688 H              1 <1>                0.0000
    140 H140         1.2581 -11.3065  -1.7662 H              1 <1>                0.0000
    141 H141         3.3880  -9.6624   4.6511 H              1 <1>                0.0000
    142 H142        -4.8970   7.3365   2.3930 H              1 <1>                0.0000
@<TRIPOS>BOND
    1    1    2 1     
    2    1   79 1     
    3    1   80 1     
    4    1   81 1     
    5    2    3 1     
    6    3   78 ar    
    7    3    4 ar    
    8    4    5 ar    
    9    4   82 1     
   10    5    6 ar    
   11    5   83 1     
   12    6   77 ar    
   13    6    7 ar    
   14    7    8 1     
   15    7    9 ar    
   16    9   15 ar    
   17    9   10 ar    
   18   10   11 ar    
   19   10   84 1     
   20   11   12 1     
   21   11   13 ar    
   22   13   14 ar    
   23   13   85 1     
   24   14   15 ar    
   25   14   86 1     
   26   15   16 ar    
   27   16   17 1     
   28   16   77 ar    
   29   17   18 1     
   30   17   87 1     
   31   18   19 1     
   32   18   88 1     
   33   18   89 1     
   34   19   20 1     
   35   19   90 1     
   36   19   91 1     
   37   20   21 1     
   38   20   92 1     
   39   20   93 1     
   40   21   22 1     
   41   21   94 1     
   42   21   95 1     
   43   22   23 1     
   44   22   27 1     
   45   22   96 1     
   46   23   24 am    
   47   23   97 1     
   48   24   25 1     
   49   24   26 2     
   50   25   98 1     
   51   25   99 1     
   52   25  100 1     
   53   27   28 2     
   54   27   29 am    
   55   29   30 1     
   56   29  101 1     
   57   30   31 1     
   58   30   39 1     
   59   30  102 1     
   60   31   32 1     
   61   31  103 1     
   62   31  104 1     
   63   32   33 1     
   64   32  105 1     
   65   32  106 1     
   66   33   34 1     
   67   33  107 1     
   68   33  108 1     
   69   34   35 1     
   70   34  109 1     
   71   34  110 1     
   72   35   36 1     
   73   35   37 1     
   74   35   38 1     
   75   39   40 2     
   76   39   41 1     
   77   41   42 2     
   78   41   43 1     
   79   43   44 1     
   80   43   52 1     
   81   43  111 1     
   82   44   45 1     
   83   44  112 1     
   84   44  113 1     
   85   45   46 1     
   86   45  114 1     
   87   45  115 1     
   88   46   47 1     
   89   46  116 1     
   90   46  117 1     
   91   47   48 1     
   92   47  118 1     
   93   47  119 1     
   94   48   49 1     
   95   48   50 1     
   96   48   51 1     
   97   52   53 am    
   98   52  120 1     
   99   53   54 2     
  100   53   55 1     
  101   55   56 1     
  102   55   64 1     
  103   55  121 1     
  104   56   57 1     
  105   56  122 1     
  106   56  123 1     
  107   57   58 1     
  108   57  124 1     
  109   57  125 1     
  110   58   59 1     
  111   58  126 1     
  112   58  127 1     
  113   59   60 1     
  114   59  128 1     
  115   59  129 1     
  116   60   61 1     
  117   60   62 1     
  118   60   63 1     
  119   64   65 1     
  120   64  130 1     
  121   65   66 1     
  122   65  131 1     
  123   66   67 1     
  124   66   75 1     
  125   66  132 1     
  126   67   68 1     
  127   67  133 1     
  128   67  134 1     
  129   68   69 1     
  130   68  135 1     
  131   68  136 1     
  132   69   70 1     
  133   69  137 1     
  134   69  138 1     
  135   70   71 1     
  136   70  139 1     
  137   70  140 1     
  138   71   72 1     
  139   71   73 1     
  140   71   74 1     
  141   75   76 2     
  142   75  141 1     
  143   77   78 ar    
  144   78  142 1     
@<TRIPOS>SUBSTRUCTURE
      1 ****           1
@<TRIPOS>SET
DONOR_HYDROGENS      STATIC     ATOMS    <user>   **** ""
19 8 87 97 101 36 37 38 49 50 51 120 61 62 63 130 131 72 73 \
 74
ATOM$RED        STATIC     ATOMS    COLORGROUP SYSTEM
19 8 87 97 101 36 37 38 49 50 51 120 61 62 63 130 131 72 73 \
 74
