#       Name:                A8M
#       Creating user name   gbret
#       Creation time:       Fri Sep  9 03:28:58 2016


#       File generated by GOLD software.
#

@<TRIPOS>MOLECULE
A8M
    52    54     1
SMALL
NO_CHARGES


@<TRIPOS>ATOM
      1 C1           1.2417   1.1523   1.5188 C.3            1 <1>                0.0000
      2 N2           1.1991  -0.3071   1.6811 N.4            1 <1>                0.0000
      3 H3           1.6385  -0.7468   0.8863 H              1 <1>                0.0000
      4 C4           1.9146  -0.6845   2.9073 C.3            1 <1>                0.0000
      5 C5           3.3973  -0.3367   2.7601 C.3            1 <1>                0.0000
      6 C6           4.1425  -0.7299   4.0372 C.3            1 <1>                0.0000
      7 N7           5.5661  -0.3959   3.8959 N.4            1 <1>                0.0000
      8 H8           6.0576  -0.6552   4.7381 H              1 <1>                0.0000
      9 H9           5.9534  -0.8994   3.1119 H              1 <1>                0.0000
     10 H10          5.6650   0.5961   3.7406 H              1 <1>                0.0000
     11 C11         -0.1988  -0.7488   1.7742 C.3            1 <1>                0.0000
     12 C12         -0.9064  -0.4862   0.4434 C.3            1 <1>                0.0000
     13 O13         -0.3899  -1.3621  -0.5822 O.3            1 <1>                0.0000
     14 C14         -1.4106  -1.3958  -1.6034 C.3            1 <1>                0.0000
     15 C15         -2.7443  -1.4575  -0.8264 C.3            1 <1>                0.0000
     16 O16         -3.1762  -2.8117  -0.6798 O.3            1 <1>                0.0000
     17 C17         -2.4050  -0.8453   0.5511 C.3            1 <1>                0.0000
     18 O18         -2.6170  -1.8028   1.5904 O.3            1 <1>                0.0000
     19 N19         -1.3530  -0.1823  -2.4222 N.pl3          1 <1>                0.0000
     20 C20         -0.2271   0.3990  -2.9247 C.2            1 <1>                0.0000
     21 C21          1.1752  -0.1144  -2.7223 C.3            1 <1>                0.0000
     22 N22         -0.5419   1.4624  -3.6057 N.2            1 <1>                0.0000
     23 C23         -1.8859   1.6305  -3.5835 C.ar           1 <1>                0.0000
     24 C24         -2.7729   2.5756  -4.1270 C.ar           1 <1>                0.0000
     25 N25         -2.3028   3.6343  -4.8841 N.pl3          1 <1>                0.0000
     26 N26         -4.0735   2.4287  -3.8973 N.ar           1 <1>                0.0000
     27 C27         -4.5311   1.4212  -3.1763 C.ar           1 <1>                0.0000
     28 N28         -3.7384   0.5130  -2.6480 N.ar           1 <1>                0.0000
     29 C29         -2.4230   0.5741  -2.8289 C.ar           1 <1>                0.0000
     30 H30          2.2780   1.4896   1.5351 H              1 <1>                0.0000
     31 H31          0.7855   1.4255   0.5673 H              1 <1>                0.0000
     32 H32          0.6930   1.6246   2.3337 H              1 <1>                0.0000
     33 H33          1.4962  -0.1407   3.7541 H              1 <1>                0.0000
     34 H34          1.8077  -1.7562   3.0750 H              1 <1>                0.0000
     35 H35          3.8157  -0.8806   1.9132 H              1 <1>                0.0000
     36 H36          3.5042   0.7350   2.5923 H              1 <1>                0.0000
     37 H37          3.7241  -0.1860   4.8841 H              1 <1>                0.0000
     38 H38          4.0357  -1.8016   4.2049 H              1 <1>                0.0000
     39 H39         -0.2288  -1.8153   1.9973 H              1 <1>                0.0000
     40 H40         -0.7020  -0.1972   2.5684 H              1 <1>                0.0000
     41 H41         -0.7863   0.5567   0.1499 H              1 <1>                0.0000
     42 H42         -1.2937  -2.2817  -2.2276 H              1 <1>                0.0000
     43 H43         -3.5083  -0.8665  -1.3316 H              1 <1>                0.0000
     44 H44         -4.0096  -2.9089  -0.1990 H              1 <1>                0.0000
     45 H45         -3.0006   0.0503   0.7282 H              1 <1>                0.0000
     46 H46         -3.5315  -2.1088   1.6628 H              1 <1>                0.0000
     47 H47          1.4582  -0.7415  -3.5678 H              1 <1>                0.0000
     48 H48          1.8633   0.7277  -2.6482 H              1 <1>                0.0000
     49 H49          1.2185  -0.7009  -1.8045 H              1 <1>                0.0000
     50 H50         -1.3511   3.7306  -5.0450 H              1 <1>                0.0000
     51 H51         -2.9249   4.2802  -5.2538 H              1 <1>                0.0000
     52 H52         -5.5957   1.3398  -3.0138 H              1 <1>                0.0000
@<TRIPOS>BOND
    1    1    2 1     
    2    1   30 1     
    3    1   31 1     
    4    1   32 1     
    5    2    3 1     
    6    2    4 1     
    7    2   11 1     
    8    4    5 1     
    9    4   33 1     
   10    4   34 1     
   11    5    6 1     
   12    5   35 1     
   13    5   36 1     
   14    6    7 1     
   15    6   37 1     
   16    6   38 1     
   17    7    8 1     
   18    7    9 1     
   19    7   10 1     
   20   11   12 1     
   21   11   39 1     
   22   11   40 1     
   23   12   17 1     
   24   12   13 1     
   25   12   41 1     
   26   13   14 1     
   27   14   15 1     
   28   14   19 1     
   29   14   42 1     
   30   15   16 1     
   31   15   17 1     
   32   15   43 1     
   33   16   44 1     
   34   17   18 1     
   35   17   45 1     
   36   18   46 1     
   37   19   29 1     
   38   19   20 1     
   39   20   21 1     
   40   20   22 2     
   41   21   47 1     
   42   21   48 1     
   43   21   49 1     
   44   22   23 1     
   45   23   29 ar    
   46   23   24 ar    
   47   24   25 1     
   48   24   26 ar    
   49   25   50 1     
   50   25   51 1     
   51   26   27 ar    
   52   27   28 ar    
   53   27   52 1     
   54   28   29 ar    
@<TRIPOS>SUBSTRUCTURE
      1 ****           1
@<TRIPOS>SET
DONOR_HYDROGENS      STATIC     ATOMS    <user>   **** ""
8 3 8 9 10 44 46 50 51
ATOM$RED        STATIC     ATOMS    COLORGROUP SYSTEM
8 3 8 9 10 44 46 50 51
