#       Name:                AB2
#       Creating user name   gbret
#       Creation time:       Fri Sep  9 03:33:10 2016


#       File generated by GOLD software.
#

@<TRIPOS>MOLECULE
AB2
    88    92     1
SMALL
NO_CHARGES


@<TRIPOS>ATOM
      1 C1           3.8582   0.4329   2.0510 C.3            1 <1>                0.0000
      2 O2           3.7998  -0.9471   2.4172 O.3            1 <1>                0.0000
      3 C3           2.5647  -1.4975   2.5536 C.ar           1 <1>                0.0000
      4 C4           1.4324  -0.7267   2.3339 C.ar           1 <1>                0.0000
      5 C5           0.1781  -1.2886   2.4727 C.ar           1 <1>                0.0000
      6 C6           0.0506  -2.6180   2.8309 C.ar           1 <1>                0.0000
      7 C7           1.1776  -3.3882   3.0509 C.ar           1 <1>                0.0000
      8 C8           2.4342  -2.8326   2.9073 C.ar           1 <1>                0.0000
      9 S9          -1.5507  -3.3316   3.0078 S.o2           1 <1>                0.0000
     10 O10         -1.3993  -4.4471   3.8749 O.2            1 <1>                0.0000
     11 O11         -2.4419  -2.2569   3.2723 O.2            1 <1>                0.0000
     12 N12         -1.9809  -3.9429   1.5301 N.pl3          1 <1>                0.0000
     13 C13         -1.6419  -5.3251   1.1824 C.3            1 <1>                0.0000
     14 C14         -2.8151  -6.2420   1.5344 C.3            1 <1>                0.0000
     15 C15         -4.0170  -5.8931   0.6543 C.3            1 <1>                0.0000
     16 C16         -2.4135  -7.6988   1.2952 C.3            1 <1>                0.0000
     17 C17         -2.7004  -3.1016   0.5706 C.3            1 <1>                0.0000
     18 C18         -1.6994  -2.4412  -0.3796 C.3            1 <1>                0.0000
     19 O19         -1.0552  -3.4455  -1.1660 O.3            1 <1>                0.0000
     20 C20         -2.4369  -1.4672  -1.3007 C.3            1 <1>                0.0000
     21 C21         -3.1266  -0.3919  -0.4587 C.3            1 <1>                0.0000
     22 C22         -3.9526   0.4946  -1.3547 C.ar           1 <1>                0.0000
     23 C23         -3.3882   1.6215  -1.9225 C.ar           1 <1>                0.0000
     24 C24         -4.1459   2.4347  -2.7444 C.ar           1 <1>                0.0000
     25 C25         -5.4679   2.1208  -2.9987 C.ar           1 <1>                0.0000
     26 C26         -6.0321   0.9934  -2.4316 C.ar           1 <1>                0.0000
     27 C27         -5.2731   0.1779  -1.6132 C.ar           1 <1>                0.0000
     28 N28         -1.4784  -0.8348  -2.2105 N.pl3          1 <1>                0.0000
     29 C29         -0.7279   0.2574  -1.9373 C.2            1 <1>                0.0000
     30 C30          0.0094   0.4955  -3.0472 C.2            1 <1>                0.0000
     31 C31          1.0074   1.6071  -3.2454 C.3            1 <1>                0.0000
     32 O32          1.0743   2.4177  -2.0425 O.3            1 <1>                0.0000
     33 C33          1.9257   3.4607  -2.0548 C.2            1 <1>                0.0000
     34 O34          2.5944   3.6874  -3.0437 O.2            1 <1>                0.0000
     35 N35          2.0361   4.2532  -0.9704 N.am           1 <1>                0.0000
     36 C36          2.9624   5.3881  -0.9838 C.3            1 <1>                0.0000
     37 C37          2.5415   6.4355   0.0689 C.3            1 <1>                0.0000
     38 O38          1.8271   5.8186   1.1418 O.3            1 <1>                0.0000
     39 C39          3.9009   6.9799   0.5565 C.3            1 <1>                0.0000
     40 C40          4.8862   5.8556   0.3188 C.ar           1 <1>                0.0000
     41 C41          6.1544   5.6495   0.8358 C.ar           1 <1>                0.0000
     42 C42          6.8812   4.5336   0.4699 C.ar           1 <1>                0.0000
     43 C43          6.3418   3.6188  -0.4153 C.ar           1 <1>                0.0000
     44 C44          5.0773   3.8226  -0.9319 C.ar           1 <1>                0.0000
     45 C45          4.3469   4.9410  -0.5662 C.ar           1 <1>                0.0000
     46 N46         -0.3218  -0.4502  -3.9333 N.2            1 <1>                0.0000
     47 N47         -1.2015  -1.2260  -3.4051 N.2            1 <1>                0.0000
     48 H48          4.8998   0.7452   1.9762 H              1 <1>                0.0000
     49 H49          3.3664   0.5746   1.0886 H              1 <1>                0.0000
     50 H50          3.3528   1.0316   2.8088 H              1 <1>                0.0000
     51 H51          1.5314   0.3119   2.0548 H              1 <1>                0.0000
     52 H52         -0.7038  -0.6890   2.3018 H              1 <1>                0.0000
     53 H53          1.0754  -4.4263   3.3309 H              1 <1>                0.0000
     54 H54          3.3142  -3.4346   3.0793 H              1 <1>                0.0000
     55 H55         -1.4371  -5.3912   0.1138 H              1 <1>                0.0000
     56 H56         -0.7587  -5.6343   1.7414 H              1 <1>                0.0000
     57 H57         -3.0808  -6.1058   2.5828 H              1 <1>                0.0000
     58 H58         -3.7147  -5.9003  -0.3929 H              1 <1>                0.0000
     59 H59         -4.8066  -6.6282   0.8096 H              1 <1>                0.0000
     60 H60         -4.3858  -4.9022   0.9191 H              1 <1>                0.0000
     61 H61         -1.5573  -7.9473   1.9222 H              1 <1>                0.0000
     62 H62         -3.2493  -8.3520   1.5460 H              1 <1>                0.0000
     63 H63         -2.1479  -7.8350   0.2469 H              1 <1>                0.0000
     64 H64         -3.3944  -3.7163  -0.0027 H              1 <1>                0.0000
     65 H65         -3.2548  -2.3315   1.1069 H              1 <1>                0.0000
     66 H66         -0.9523  -1.8985   0.1996 H              1 <1>                0.0000
     67 H67         -1.6610  -3.9689  -1.7085 H              1 <1>                0.0000
     68 H68         -3.1840  -2.0099  -1.8799 H              1 <1>                0.0000
     69 H69         -3.7735  -0.8673   0.2786 H              1 <1>                0.0000
     70 H70         -2.3735   0.2082   0.0520 H              1 <1>                0.0000
     71 H71         -2.3554   1.8667  -1.7238 H              1 <1>                0.0000
     72 H72         -3.7052   3.3155  -3.1875 H              1 <1>                0.0000
     73 H73         -6.0601   2.7565  -3.6403 H              1 <1>                0.0000
     74 H74         -7.0650   0.7483  -2.6300 H              1 <1>                0.0000
     75 H75         -5.7139  -0.7029  -1.1701 H              1 <1>                0.0000
     76 H76         -0.7192   0.8252  -1.0187 H              1 <1>                0.0000
     77 H77          1.9893   1.1813  -3.4516 H              1 <1>                0.0000
     78 H78          0.6971   2.2285  -4.0854 H              1 <1>                0.0000
     79 H79          1.5023   4.0722  -0.1810 H              1 <1>                0.0000
     80 H80          2.9936   5.8384  -1.9760 H              1 <1>                0.0000
     81 H81          1.9454   7.2257  -0.3875 H              1 <1>                0.0000
     82 H82          1.5406   6.4351   1.8295 H              1 <1>                0.0000
     83 H83          4.1849   7.8599  -0.0206 H              1 <1>                0.0000
     84 H84          3.8525   7.2223   1.6181 H              1 <1>                0.0000
     85 H85          6.5765   6.3639   1.5271 H              1 <1>                0.0000
     86 H86          7.8700   4.3760   0.8745 H              1 <1>                0.0000
     87 H87          6.9089   2.7458  -0.7029 H              1 <1>                0.0000
     88 H88          4.6568   3.1076  -1.6236 H              1 <1>                0.0000
@<TRIPOS>BOND
    1    1    2 1     
    2    1   48 1     
    3    1   49 1     
    4    1   50 1     
    5    2    3 1     
    6    3    8 ar    
    7    3    4 ar    
    8    4    5 ar    
    9    4   51 1     
   10    5    6 ar    
   11    5   52 1     
   12    6    7 ar    
   13    6    9 1     
   14    7    8 ar    
   15    7   53 1     
   16    8   54 1     
   17    9   10 2     
   18    9   11 2     
   19    9   12 1     
   20   12   13 1     
   21   12   17 1     
   22   13   14 1     
   23   13   55 1     
   24   13   56 1     
   25   14   15 1     
   26   14   16 1     
   27   14   57 1     
   28   15   58 1     
   29   15   59 1     
   30   15   60 1     
   31   16   61 1     
   32   16   62 1     
   33   16   63 1     
   34   17   18 1     
   35   17   64 1     
   36   17   65 1     
   37   18   19 1     
   38   18   20 1     
   39   18   66 1     
   40   19   67 1     
   41   20   21 1     
   42   20   28 1     
   43   20   68 1     
   44   21   22 1     
   45   21   69 1     
   46   21   70 1     
   47   22   27 ar    
   48   22   23 ar    
   49   23   24 ar    
   50   23   71 1     
   51   24   25 ar    
   52   24   72 1     
   53   25   26 ar    
   54   25   73 1     
   55   26   27 ar    
   56   26   74 1     
   57   27   75 1     
   58   28   47 1     
   59   28   29 1     
   60   29   30 2     
   61   29   76 1     
   62   30   31 1     
   63   30   46 1     
   64   31   32 1     
   65   31   77 1     
   66   31   78 1     
   67   32   33 1     
   68   33   34 2     
   69   33   35 am    
   70   35   36 1     
   71   35   79 1     
   72   36   45 1     
   73   36   37 1     
   74   36   80 1     
   75   37   38 1     
   76   37   39 1     
   77   37   81 1     
   78   38   82 1     
   79   39   40 1     
   80   39   83 1     
   81   39   84 1     
   82   40   45 ar    
   83   40   41 ar    
   84   41   42 ar    
   85   41   85 1     
   86   42   43 ar    
   87   42   86 1     
   88   43   44 ar    
   89   43   87 1     
   90   44   45 ar    
   91   44   88 1     
   92   46   47 2     
@<TRIPOS>SUBSTRUCTURE
      1 ****           1
@<TRIPOS>SET
DONOR_HYDROGENS      STATIC     ATOMS    <user>   **** ""
3 67 79 82
ATOM$RED        STATIC     ATOMS    COLORGROUP SYSTEM
3 67 79 82
