#       Name:                ABC
#       Creating user name   gbret
#       Creation time:       Fri Sep  9 03:33:53 2016


#       File generated by GOLD software.
#

@<TRIPOS>MOLECULE
ABC
   128   133     1
SMALL
NO_CHARGES


@<TRIPOS>ATOM
      1 C1          -6.4541   7.3433   7.9151 C.3            1 <1>                0.0000
      2 C2          -5.9243   5.9348   7.6392 C.3            1 <1>                0.0000
      3 O3          -5.0884   5.9585   6.4803 O.3            1 <1>                0.0000
      4 C4          -4.5586   4.6821   6.1169 C.3            1 <1>                0.0000
      5 O5          -3.7636   4.8146   4.9368 O.3            1 <1>                0.0000
      6 C6          -4.5040   5.2026   3.7778 C.3            1 <1>                0.0000
      7 C7          -3.6000   6.0048   2.8381 C.3            1 <1>                0.0000
      8 C8          -3.0476   7.2240   3.5791 C.3            1 <1>                0.0000
      9 O9          -2.2989   8.0345   2.6710 O.3            1 <1>                0.0000
     10 O10         -2.5169   5.1806   2.4026 O.3            1 <1>                0.0000
     11 C11         -2.9228   4.0209   1.6730 C.3            1 <1>                0.0000
     12 O12         -1.7673   3.2860   1.2647 O.3            1 <1>                0.0000
     13 C13         -0.9346   3.9817   0.3348 C.3            1 <1>                0.0000
     14 C14          0.5199   3.5508   0.5354 C.3            1 <1>                0.0000
     15 O15          0.8540   3.6189   1.9231 O.3            1 <1>                0.0000
     16 C16          0.6712   2.1074   0.0388 C.3            1 <1>                0.0000
     17 O17         -0.3205   1.2818   0.6527 O.3            1 <1>                0.0000
     18 C18          0.4823   2.0957  -1.4797 C.3            1 <1>                0.0000
     19 N19          0.3755   0.7069  -1.9464 N.4            1 <1>                0.0000
     20 H20          1.1704   0.1795  -1.6177 H              1 <1>                0.0000
     21 H21         -0.4729   0.2956  -1.5869 H              1 <1>                0.0000
     22 C22          0.3464   0.6847  -3.4149 C.3            1 <1>                0.0000
     23 C23          1.7786   0.6479  -3.9545 C.3            1 <1>                0.0000
     24 C24          2.5520   1.8601  -3.4317 C.3            1 <1>                0.0000
     25 O25          2.4203  -0.5516  -3.5171 O.3            1 <1>                0.0000
     26 C26          1.7904  -1.7503  -3.9739 C.3            1 <1>                0.0000
     27 O27          2.5240  -2.8830  -3.5040 O.3            1 <1>                0.0000
     28 C28          3.8446  -2.9836  -4.0405 C.3            1 <1>                0.0000
     29 C29          4.7569  -3.6796  -3.0271 C.3            1 <1>                0.0000
     30 C30          4.7488  -2.8976  -1.7120 C.3            1 <1>                0.0000
     31 O31          5.6880  -3.4797  -0.8059 O.3            1 <1>                0.0000
     32 O32          4.2829  -5.0075  -2.7948 O.3            1 <1>                0.0000
     33 C33          4.2740  -5.8359  -3.9592 C.3            1 <1>                0.0000
     34 O34          3.8104  -7.1421  -3.6113 O.3            1 <1>                0.0000
     35 C35          4.7307  -7.8930  -2.8168 C.3            1 <1>                0.0000
     36 C36          3.9574  -8.7557  -1.8162 C.3            1 <1>                0.0000
     37 C37          3.0737  -7.8598  -0.9460 C.3            1 <1>                0.0000
     38 O38          3.1388  -9.6878  -2.5257 O.3            1 <1>                0.0000
     39 C39          3.8702 -10.5945  -3.3535 C.3            1 <1>                0.0000
     40 O40          2.9624 -11.4942  -3.9927 O.3            1 <1>                0.0000
     41 C41          4.6400  -9.8056  -4.4159 C.3            1 <1>                0.0000
     42 O42          3.7173  -9.1053  -5.2527 O.3            1 <1>                0.0000
     43 C43          5.5667  -8.8016  -3.7234 C.3            1 <1>                0.0000
     44 O44          6.2351  -8.0103  -4.7078 O.3            1 <1>                0.0000
     45 C45          3.3423  -5.2266  -5.0101 C.3            1 <1>                0.0000
     46 O46          2.0084  -5.1854  -4.4992 O.3            1 <1>                0.0000
     47 C47          3.8108  -3.8044  -5.3333 C.3            1 <1>                0.0000
     48 O48          2.9043  -3.2014  -6.2589 O.3            1 <1>                0.0000
     49 C49          0.3587  -1.8099  -3.4351 C.3            1 <1>                0.0000
     50 O50          0.3873  -1.8543  -2.0071 O.3            1 <1>                0.0000
     51 C51         -0.4033  -0.5625  -3.8932 C.3            1 <1>                0.0000
     52 O52         -1.7184  -0.5736  -3.3342 O.3            1 <1>                0.0000
     53 C53         -0.7652   2.8426  -1.8511 C.2            1 <1>                0.0000
     54 C54         -1.3790   3.6662  -1.0634 C.2            1 <1>                0.0000
     55 C55         -2.6175   4.3502  -1.5825 C.3            1 <1>                0.0000
     56 O56         -2.8734   3.9204  -2.9211 O.3            1 <1>                0.0000
     57 C57         -3.7996   3.1390   2.5659 C.3            1 <1>                0.0000
     58 O58         -3.0406   2.6963   3.6928 O.3            1 <1>                0.0000
     59 C59         -5.0047   3.9524   3.0480 C.3            1 <1>                0.0000
     60 O60         -5.7900   3.1599   3.9410 O.3            1 <1>                0.0000
     61 C61         -3.6912   4.1471   7.2593 C.3            1 <1>                0.0000
     62 O62         -2.5866   5.0281   7.4732 O.3            1 <1>                0.0000
     63 C63         -4.5349   4.0648   8.5351 C.3            1 <1>                0.0000
     64 O64         -3.7146   3.6360   9.6239 O.3            1 <1>                0.0000
     65 C65         -5.1118   5.4501   8.8428 C.3            1 <1>                0.0000
     66 O66         -4.0448   6.3656   9.0986 O.3            1 <1>                0.0000
     67 H67         -5.6165   8.0200   8.0841 H              1 <1>                0.0000
     68 H68         -7.0326   7.6883   7.0580 H              1 <1>                0.0000
     69 H69         -7.0908   7.3252   8.7996 H              1 <1>                0.0000
     70 H70         -6.7618   5.2581   7.4697 H              1 <1>                0.0000
     71 H71         -5.3781   3.9889   5.9271 H              1 <1>                0.0000
     72 H72         -5.3547   5.8149   4.0771 H              1 <1>                0.0000
     73 H73         -4.1761   6.3350   1.9737 H              1 <1>                0.0000
     74 H74         -3.8737   7.8054   3.9886 H              1 <1>                0.0000
     75 H75         -2.3990   6.8931   4.3902 H              1 <1>                0.0000
     76 H76         -1.9182   8.8271   3.0734 H              1 <1>                0.0000
     77 H77         -3.4898   4.3250   0.7931 H              1 <1>                0.0000
     78 H78         -1.0185   5.0547   0.5072 H              1 <1>                0.0000
     79 H79          1.1784   4.2080  -0.0326 H              1 <1>                0.0000
     80 H80          1.7639   3.3585   2.1219 H              1 <1>                0.0000
     81 H81          1.6645   1.7356   0.2905 H              1 <1>                0.0000
     82 H82         -0.2688   1.2566   1.6180 H              1 <1>                0.0000
     83 H83          1.3406   2.5713  -1.9542 H              1 <1>                0.0000
     84 H84         -0.1597   1.5773  -3.7827 H              1 <1>                0.0000
     85 H85          1.7573   0.6725  -5.0440 H              1 <1>                0.0000
     86 H86          2.7294   1.7444  -2.3625 H              1 <1>                0.0000
     87 H87          3.5067   1.9342  -3.9525 H              1 <1>                0.0000
     88 H88          1.9709   2.7654  -3.6078 H              1 <1>                0.0000
     89 H89          1.7695  -1.7573  -5.0637 H              1 <1>                0.0000
     90 H90          4.2286  -1.9857  -4.2526 H              1 <1>                0.0000
     91 H91          5.7728  -3.7195  -3.4200 H              1 <1>                0.0000
     92 H92          5.0242  -1.8606  -1.9042 H              1 <1>                0.0000
     93 H93          3.7513  -2.9334  -1.2741 H              1 <1>                0.0000
     94 H94          5.7363  -3.0338   0.0508 H              1 <1>                0.0000
     95 H95          5.2836  -5.9044  -4.3643 H              1 <1>                0.0000
     96 H96          5.3886  -7.2106  -2.2787 H              1 <1>                0.0000
     97 H97          4.6606  -9.2973  -1.1835 H              1 <1>                0.0000
     98 H98          2.3112  -7.3887  -1.5665 H              1 <1>                0.0000
     99 H99          2.5934  -8.4620  -0.1748 H              1 <1>                0.0000
    100 H100         3.6867  -7.0902  -0.4769 H              1 <1>                0.0000
    101 H101         4.5721 -11.1604  -2.7410 H              1 <1>                0.0000
    102 H102         2.4392 -12.0273  -3.3785 H              1 <1>                0.0000
    103 H103         5.2322 -10.4919  -5.0212 H              1 <1>                0.0000
    104 H104         3.0954  -9.6801  -5.7196 H              1 <1>                0.0000
    105 H105         6.3023  -9.3378  -3.1238 H              1 <1>                0.0000
    106 H106         6.7787  -8.5229  -5.3218 H              1 <1>                0.0000
    107 H107         3.3672  -5.8338  -5.9149 H              1 <1>                0.0000
    108 H108         1.6487  -6.0528  -4.2683 H              1 <1>                0.0000
    109 H109         4.8092  -3.8397  -5.7691 H              1 <1>                0.0000
    110 H110         2.8279  -3.6738  -7.0992 H              1 <1>                0.0000
    111 H111        -0.1375  -2.7019  -3.8174 H              1 <1>                0.0000
    112 H112         0.8593  -2.6175  -1.6467 H              1 <1>                0.0000
    113 H113        -0.4683  -0.5541  -4.9812 H              1 <1>                0.0000
    114 H114        -2.2482  -1.3409  -3.5903 H              1 <1>                0.0000
    115 H115        -1.1764   2.6830  -2.8369 H              1 <1>                0.0000
    116 H116        -3.4669   4.0930  -0.9497 H              1 <1>                0.0000
    117 H117        -2.4686   5.4299  -1.5698 H              1 <1>                0.0000
    118 H118        -3.6579   4.3213  -3.3197 H              1 <1>                0.0000
    119 H119        -4.1455   2.2755   1.9978 H              1 <1>                0.0000
    120 H120        -2.2580   2.1779   3.4608 H              1 <1>                0.0000
    121 H121        -5.6110   4.2482   2.1918 H              1 <1>                0.0000
    122 H122        -6.1346   2.3472   3.5462 H              1 <1>                0.0000
    123 H123        -3.3210   3.1548   7.0017 H              1 <1>                0.0000
    124 H124        -2.0112   5.1316   6.7030 H              1 <1>                0.0000
    125 H125        -5.3482   3.3539   8.3893 H              1 <1>                0.0000
    126 H126        -3.3104   2.7673   9.4934 H              1 <1>                0.0000
    127 H127        -5.7585   5.3892   9.7181 H              1 <1>                0.0000
    128 H128        -4.3380   7.2646   9.3012 H              1 <1>                0.0000
@<TRIPOS>BOND
    1    1    2 1     
    2    1   67 1     
    3    1   68 1     
    4    1   69 1     
    5    2   65 1     
    6    2    3 1     
    7    2   70 1     
    8    3    4 1     
    9    4    5 1     
   10    4   61 1     
   11    4   71 1     
   12    5    6 1     
   13    6   59 1     
   14    6    7 1     
   15    6   72 1     
   16    7    8 1     
   17    7   10 1     
   18    7   73 1     
   19    8    9 1     
   20    8   74 1     
   21    8   75 1     
   22    9   76 1     
   23   10   11 1     
   24   11   12 1     
   25   11   57 1     
   26   11   77 1     
   27   12   13 1     
   28   13   54 1     
   29   13   14 1     
   30   13   78 1     
   31   14   15 1     
   32   14   16 1     
   33   14   79 1     
   34   15   80 1     
   35   16   17 1     
   36   16   18 1     
   37   16   81 1     
   38   17   82 1     
   39   18   19 1     
   40   18   53 1     
   41   18   83 1     
   42   19   20 1     
   43   19   21 1     
   44   19   22 1     
   45   22   51 1     
   46   22   23 1     
   47   22   84 1     
   48   23   24 1     
   49   23   25 1     
   50   23   85 1     
   51   24   86 1     
   52   24   87 1     
   53   24   88 1     
   54   25   26 1     
   55   26   27 1     
   56   26   49 1     
   57   26   89 1     
   58   27   28 1     
   59   28   47 1     
   60   28   29 1     
   61   28   90 1     
   62   29   30 1     
   63   29   32 1     
   64   29   91 1     
   65   30   31 1     
   66   30   92 1     
   67   30   93 1     
   68   31   94 1     
   69   32   33 1     
   70   33   34 1     
   71   33   45 1     
   72   33   95 1     
   73   34   35 1     
   74   35   43 1     
   75   35   36 1     
   76   35   96 1     
   77   36   37 1     
   78   36   38 1     
   79   36   97 1     
   80   37   98 1     
   81   37   99 1     
   82   37  100 1     
   83   38   39 1     
   84   39   40 1     
   85   39   41 1     
   86   39  101 1     
   87   40  102 1     
   88   41   42 1     
   89   41   43 1     
   90   41  103 1     
   91   42  104 1     
   92   43   44 1     
   93   43  105 1     
   94   44  106 1     
   95   45   46 1     
   96   45   47 1     
   97   45  107 1     
   98   46  108 1     
   99   47   48 1     
  100   47  109 1     
  101   48  110 1     
  102   49   50 1     
  103   49   51 1     
  104   49  111 1     
  105   50  112 1     
  106   51   52 1     
  107   51  113 1     
  108   52  114 1     
  109   53   54 2     
  110   53  115 1     
  111   54   55 1     
  112   55   56 1     
  113   55  116 1     
  114   55  117 1     
  115   56  118 1     
  116   57   58 1     
  117   57   59 1     
  118   57  119 1     
  119   58  120 1     
  120   59   60 1     
  121   59  121 1     
  122   60  122 1     
  123   61   62 1     
  124   61   63 1     
  125   61  123 1     
  126   62  124 1     
  127   63   64 1     
  128   63   65 1     
  129   63  125 1     
  130   64  126 1     
  131   65   66 1     
  132   65  127 1     
  133   66  128 1     
@<TRIPOS>SUBSTRUCTURE
      1 ****           1
@<TRIPOS>SET
DONOR_HYDROGENS      STATIC     ATOMS    <user>   **** ""
19 76 80 82 20 21 94 102 104 106 108 110 112 114 118 120 122 124 126 \
 128
ATOM$RED        STATIC     ATOMS    COLORGROUP SYSTEM
19 76 80 82 20 21 94 102 104 106 108 110 112 114 118 120 122 124 126 \
 128
