#       Name:                AC4
#       Creating user name   gbret
#       Creation time:       Fri Sep  9 03:35:41 2016


#       File generated by GOLD software.
#

@<TRIPOS>MOLECULE
AC4
    35    36     1
SMALL
NO_CHARGES


@<TRIPOS>ATOM
      1 N1           3.8829   4.3818   0.2409 N.am           1 <1>                0.0000
      2 C2           3.9012   3.0341   0.2335 C.2            1 <1>                0.0000
      3 O3           4.9635   2.4399   0.2202 O.2            1 <1>                0.0000
      4 C4           2.6427   2.2845   0.2415 C.2            1 <1>                0.0000
      5 N5           1.3884   2.8129   0.2503 N.2            1 <1>                0.0000
      6 C6           0.5181   1.8484   0.2551 C.2            1 <1>                0.0000
      7 N7           1.1676   0.6488   0.2496 N.pl3          1 <1>                0.0000
      8 C8           0.5392  -0.6746   0.2523 C.3            1 <1>                0.0000
      9 O9          -0.8196  -0.5850   0.7335 O.3            1 <1>                0.0000
     10 C10         -1.4764  -1.7737   0.2421 C.3            1 <1>                0.0000
     11 C11         -2.9936  -1.5768   0.2281 C.3            1 <1>                0.0000
     12 O12         -3.4706  -1.4562   1.5697 O.3            1 <1>                0.0000
     13 P13         -5.0242  -1.2382   1.9317 P.3            1 <1>                0.0000
     14 O14         -5.8435  -2.5015   1.4992 O.co2          1 <1>                0.0000
     15 O15         -5.1752  -1.0214   3.4759 O.co2          1 <1>                0.0000
     16 O16         -5.5657   0.0206   1.1722 O.co2          1 <1>                0.0000
     17 C17         -0.9440  -1.9525  -1.1970 C.3            1 <1>                0.0000
     18 O18         -1.8362  -1.3535  -2.1390 O.3            1 <1>                0.0000
     19 C19          0.4125  -1.2128  -1.1901 C.3            1 <1>                0.0000
     20 O20          0.3995  -0.1343  -2.1276 O.3            1 <1>                0.0000
     21 C21          2.5073   0.9037   0.2354 C.2            1 <1>                0.0000
     22 N22          3.5262  -0.0271   0.2257 N.pl3          1 <1>                0.0000
     23 H23          4.7162   4.8781   0.2316 H              1 <1>                0.0000
     24 H24          3.0364   4.8552   0.2515 H              1 <1>                0.0000
     25 H25         -0.5542   1.9765   0.2629 H              1 <1>                0.0000
     26 H26          1.1161  -1.3664   0.8661 H              1 <1>                0.0000
     27 H27         -1.2119  -2.6347   0.8560 H              1 <1>                0.0000
     28 H28         -3.2372  -0.6709  -0.3269 H              1 <1>                0.0000
     29 H29         -3.4669  -2.4343  -0.2502 H              1 <1>                0.0000
     30 H30         -0.8039  -3.0094  -1.4239 H              1 <1>                0.0000
     31 H31         -1.5504  -1.4363  -3.0590 H              1 <1>                0.0000
     32 H32          1.2255  -1.9039  -1.4127 H              1 <1>                0.0000
     33 H33          0.2618  -0.4113  -3.0438 H              1 <1>                0.0000
     34 H34          4.4509   0.2659   0.2225 H              1 <1>                0.0000
     35 H35          3.3177  -0.9745   0.2221 H              1 <1>                0.0000
@<TRIPOS>BOND
    1    1    2 am    
    2    1   23 1     
    3    1   24 1     
    4    2    3 2     
    5    2    4 1     
    6    4   21 2     
    7    4    5 1     
    8    5    6 2     
    9    6    7 1     
   10    6   25 1     
   11    7    8 1     
   12    7   21 1     
   13    8   19 1     
   14    8    9 1     
   15    8   26 1     
   16    9   10 1     
   17   10   11 1     
   18   10   17 1     
   19   10   27 1     
   20   11   12 1     
   21   11   28 1     
   22   11   29 1     
   23   12   13 1     
   24   13   14 ar    
   25   13   15 ar    
   26   13   16 ar    
   27   17   18 1     
   28   17   19 1     
   29   17   30 1     
   30   18   31 1     
   31   19   20 1     
   32   19   32 1     
   33   20   33 1     
   34   21   22 1     
   35   22   34 1     
   36   22   35 1     
@<TRIPOS>SUBSTRUCTURE
      1 ****           1
@<TRIPOS>SET
DONOR_HYDROGENS      STATIC     ATOMS    <user>   **** ""
6 23 24 31 33 34 35
ATOM$RED        STATIC     ATOMS    COLORGROUP SYSTEM
6 23 24 31 33 34 35
