#       Name:                AC8
#       Creating user name   gbret
#       Creation time:       Fri Sep  9 03:35:57 2016


#       File generated by GOLD software.
#

@<TRIPOS>MOLECULE
AC8
    83    85     1
SMALL
NO_CHARGES


@<TRIPOS>ATOM
      1 C1           2.9016  -0.0268  -3.1552 C.3            1 <1>                0.0000
      2 C2           2.8868  -1.5333  -3.4219 C.3            1 <1>                0.0000
      3 C3           3.5902  -2.2613  -2.2747 C.3            1 <1>                0.0000
      4 C4           1.4395  -2.0191  -3.5229 C.3            1 <1>                0.0000
      5 O5           0.7586  -1.7458  -2.2967 O.3            1 <1>                0.0000
      6 P6          -0.7865  -2.1241  -2.0484 P.3            1 <1>                0.0000
      7 O7          -1.6785  -1.2988  -3.0025 O.co2          1 <1>                0.0000
      8 O8          -0.9979  -3.6304  -2.3197 O.co2          1 <1>                0.0000
      9 O9          -1.1818  -1.7929  -0.5233 O.3            1 <1>                0.0000
     10 P10         -2.3628  -2.2793   0.4569 P.3            1 <1>                0.0000
     11 O11         -3.6838  -1.5858   0.0553 O.co2          1 <1>                0.0000
     12 O12         -2.5296  -3.8109   0.3418 O.co2          1 <1>                0.0000
     13 O13         -1.9936  -1.8922   1.9754 O.3            1 <1>                0.0000
     14 C14         -2.7931  -2.2812   3.0941 C.3            1 <1>                0.0000
     15 C15         -2.1599  -1.7515   4.3823 C.3            1 <1>                0.0000
     16 O16         -2.3005  -0.3170   4.4654 O.3            1 <1>                0.0000
     17 C17         -2.1670   0.0381   5.8519 C.3            1 <1>                0.0000
     18 C18         -2.6015  -1.1853   6.6820 C.3            1 <1>                0.0000
     19 O19         -3.7577  -0.8753   7.4623 O.3            1 <1>                0.0000
     20 P20         -3.7895  -0.9926   9.0677 P.3            1 <1>                0.0000
     21 O21         -2.7966   0.0490   9.6872 O.co2          1 <1>                0.0000
     22 O22         -5.2399  -0.7025   9.5840 O.co2          1 <1>                0.0000
     23 O23         -3.3628  -2.4384   9.4942 O.co2          1 <1>                0.0000
     24 C24         -2.9359  -2.2634   5.6225 C.3            1 <1>                0.0000
     25 O25         -4.3406  -2.3054   5.3635 O.3            1 <1>                0.0000
     26 P26         -5.2380  -3.6200   5.6057 P.3            1 <1>                0.0000
     27 O27         -5.2666  -3.9583   7.1351 O.co2          1 <1>                0.0000
     28 O28         -6.6977  -3.3559   5.1018 O.co2          1 <1>                0.0000
     29 O29         -4.6228  -4.8250   4.8157 O.co2          1 <1>                0.0000
     30 N30         -0.7717   0.3715   6.1486 N.pl3          1 <1>                0.0000
     31 C31          0.3228  -0.0421   5.4490 C.2            1 <1>                0.0000
     32 N32          1.4040   0.4406   5.9890 N.2            1 <1>                0.0000
     33 C33          1.0730   1.1924   7.0663 C.ar           1 <1>                0.0000
     34 C34          1.7982   1.9377   8.0118 C.ar           1 <1>                0.0000
     35 N35          3.1787   2.0098   7.9487 N.pl3          1 <1>                0.0000
     36 N36          1.1272   2.5719   8.9676 N.ar           1 <1>                0.0000
     37 C37         -0.1903   2.5091   9.0353 C.ar           1 <1>                0.0000
     38 N38         -0.9102   1.8240   8.1723 N.ar           1 <1>                0.0000
     39 C39         -0.3271   1.1619   7.1781 C.ar           1 <1>                0.0000
     40 C40          3.6158  -1.8260  -4.7348 C.3            1 <1>                0.0000
     41 O41          3.7191  -3.2395  -4.9175 O.3            1 <1>                0.0000
     42 C42          2.8446  -1.2262  -5.8822 C.2            1 <1>                0.0000
     43 O43          2.2988  -1.9484  -6.6893 O.2            1 <1>                0.0000
     44 N44          2.7613   0.1128  -6.0114 N.am           1 <1>                0.0000
     45 C45          1.9326   0.6965  -7.0691 C.3            1 <1>                0.0000
     46 C46          2.0123   2.2227  -6.9957 C.3            1 <1>                0.0000
     47 C47          1.1598   2.8231  -8.0837 C.2            1 <1>                0.0000
     48 O48          0.5486   2.1014  -8.8430 O.2            1 <1>                0.0000
     49 N49          1.0765   4.1621  -8.2129 N.am           1 <1>                0.0000
     50 C50          0.2478   4.7458  -9.2706 C.3            1 <1>                0.0000
     51 C51          0.3275   6.2720  -9.1972 C.3            1 <1>                0.0000
     52 S52         -0.6987   6.9947 -10.5068 S.3            1 <1>                0.0000
     53 H53          3.9274   0.3394  -3.1964 H              1 <1>                0.0000
     54 H54          2.3035   0.4820  -3.9112 H              1 <1>                0.0000
     55 H55          2.4844   0.1715  -2.1679 H              1 <1>                0.0000
     56 H56          3.0363  -2.1022  -1.3495 H              1 <1>                0.0000
     57 H57          3.6332  -3.3282  -2.4935 H              1 <1>                0.0000
     58 H58          4.6023  -1.8720  -2.1637 H              1 <1>                0.0000
     59 H59          0.9384  -1.5005  -4.3402 H              1 <1>                0.0000
     60 H60          1.4289  -3.0924  -3.7129 H              1 <1>                0.0000
     61 H61         -3.7958  -1.8678   2.9855 H              1 <1>                0.0000
     62 H62         -2.8513  -3.3688   3.1384 H              1 <1>                0.0000
     63 H63         -1.1105  -2.0407   4.4399 H              1 <1>                0.0000
     64 H64         -2.8099   0.8882   6.0803 H              1 <1>                0.0000
     65 H65         -1.7868  -1.5190   7.3248 H              1 <1>                0.0000
     66 H66         -2.5697  -3.2417   5.9340 H              1 <1>                0.0000
     67 H67          0.2965  -0.6772   4.5759 H              1 <1>                0.0000
     68 H68          3.6571   1.5426   7.2460 H              1 <1>                0.0000
     69 H69          3.6679   2.5275   8.6072 H              1 <1>                0.0000
     70 H70         -0.6958   3.0395   9.8287 H              1 <1>                0.0000
     71 H71          4.6143  -1.3901  -4.7009 H              1 <1>                0.0000
     72 H72          2.8666  -3.6943  -4.9569 H              1 <1>                0.0000
     73 H73          3.2501   0.6900  -5.4040 H              1 <1>                0.0000
     74 H74          2.2937   0.3601  -8.0409 H              1 <1>                0.0000
     75 H75          0.8980   0.3799  -6.9364 H              1 <1>                0.0000
     76 H76          1.6511   2.5590  -6.0238 H              1 <1>                0.0000
     77 H77          3.0468   2.5393  -7.1283 H              1 <1>                0.0000
     78 H78          1.5653   4.7393  -7.6055 H              1 <1>                0.0000
     79 H79          0.6089   4.4094 -10.2424 H              1 <1>                0.0000
     80 H80         -0.7868   4.4292  -9.1379 H              1 <1>                0.0000
     81 H81         -0.0337   6.6083  -8.2253 H              1 <1>                0.0000
     82 H82          1.3620   6.5886  -9.3298 H              1 <1>                0.0000
     83 H83         -0.5353   8.3172 -10.3241 H              1 <1>                0.0000
@<TRIPOS>BOND
    1    1    2 1     
    2    1   53 1     
    3    1   54 1     
    4    1   55 1     
    5    2    3 1     
    6    2    4 1     
    7    2   40 1     
    8    3   56 1     
    9    3   57 1     
   10    3   58 1     
   11    4    5 1     
   12    4   59 1     
   13    4   60 1     
   14    5    6 1     
   15    6    7 ar    
   16    6    8 ar    
   17    6    9 1     
   18    9   10 1     
   19   10   11 ar    
   20   10   12 ar    
   21   10   13 1     
   22   13   14 1     
   23   14   15 1     
   24   14   61 1     
   25   14   62 1     
   26   15   24 1     
   27   15   16 1     
   28   15   63 1     
   29   16   17 1     
   30   17   18 1     
   31   17   30 1     
   32   17   64 1     
   33   18   19 1     
   34   18   24 1     
   35   18   65 1     
   36   19   20 1     
   37   20   21 ar    
   38   20   22 ar    
   39   20   23 ar    
   40   24   25 1     
   41   24   66 1     
   42   25   26 1     
   43   26   27 ar    
   44   26   28 ar    
   45   26   29 ar    
   46   30   39 1     
   47   30   31 1     
   48   31   32 2     
   49   31   67 1     
   50   32   33 1     
   51   33   39 ar    
   52   33   34 ar    
   53   34   35 1     
   54   34   36 ar    
   55   35   68 1     
   56   35   69 1     
   57   36   37 ar    
   58   37   38 ar    
   59   37   70 1     
   60   38   39 ar    
   61   40   41 1     
   62   40   42 1     
   63   40   71 1     
   64   41   72 1     
   65   42   43 2     
   66   42   44 am    
   67   44   45 1     
   68   44   73 1     
   69   45   46 1     
   70   45   74 1     
   71   45   75 1     
   72   46   47 1     
   73   46   76 1     
   74   46   77 1     
   75   47   48 2     
   76   47   49 am    
   77   49   50 1     
   78   49   78 1     
   79   50   51 1     
   80   50   79 1     
   81   50   80 1     
   82   51   52 1     
   83   51   81 1     
   84   51   82 1     
   85   52   83 1     
@<TRIPOS>SUBSTRUCTURE
      1 ****           1
@<TRIPOS>SET
DONOR_HYDROGENS      STATIC     ATOMS    <user>   **** ""
5 68 69 72 73 78
ATOM$RED        STATIC     ATOMS    COLORGROUP SYSTEM
5 68 69 72 73 78
