#       Name:                ACA
#       Creating user name   gbret
#       Creation time:       Fri Sep  9 03:36:03 2016


#       File generated by GOLD software.
#

@<TRIPOS>MOLECULE
ACA
    22    21     1
SMALL
NO_CHARGES


@<TRIPOS>ATOM
      1 N1           1.1757  -2.6728  -2.0321 N.4            1 <1>                0.0000
      2 H2           1.1894  -3.6817  -2.0377 H              1 <1>                0.0000
      3 H3           2.1223  -2.3235  -2.0393 H              1 <1>                0.0000
      4 H4           0.6877  -2.3385  -2.8496 H              1 <1>                0.0000
      5 C5           0.4881  -2.1990  -0.8235 C.3            1 <1>                0.0000
      6 C6           0.4674  -0.6692  -0.8151 C.3            1 <1>                0.0000
      7 C7          -0.2488  -0.1758   0.4437 C.3            1 <1>                0.0000
      8 C8          -0.2695   1.3541   0.4521 C.3            1 <1>                0.0000
      9 C9          -0.9857   1.8475   1.7109 C.3            1 <1>                0.0000
     10 C10         -1.0061   3.3543   1.7192 C.2            1 <1>                0.0000
     11 O11         -0.4952   3.9760   0.8032 O.co2          1 <1>                0.0000
     12 O12         -1.5335   3.9518   2.6419 O.co2          1 <1>                0.0000
     13 H13         -0.5345  -2.5763  -0.8158 H              1 <1>                0.0000
     14 H14          1.0153  -2.5601   0.0595 H              1 <1>                0.0000
     15 H15          1.4900  -0.2919  -0.8228 H              1 <1>                0.0000
     16 H16         -0.0598  -0.3081  -1.6982 H              1 <1>                0.0000
     17 H17         -1.2714  -0.5531   0.4514 H              1 <1>                0.0000
     18 H18          0.2784  -0.5369   1.3268 H              1 <1>                0.0000
     19 H19          0.7531   1.7313   0.4444 H              1 <1>                0.0000
     20 H20         -0.7967   1.7151  -0.4310 H              1 <1>                0.0000
     21 H21         -2.0083   1.4702   1.7187 H              1 <1>                0.0000
     22 H22         -0.4585   1.4864   2.5940 H              1 <1>                0.0000
@<TRIPOS>BOND
    1    1    2 1     
    2    1    3 1     
    3    1    4 1     
    4    1    5 1     
    5    5    6 1     
    6    5   13 1     
    7    5   14 1     
    8    6    7 1     
    9    6   15 1     
   10    6   16 1     
   11    7    8 1     
   12    7   17 1     
   13    7   18 1     
   14    8    9 1     
   15    8   19 1     
   16    8   20 1     
   17    9   10 1     
   18    9   21 1     
   19    9   22 1     
   20   10   11 ar    
   21   10   12 ar    
@<TRIPOS>SUBSTRUCTURE
      1 ****           1
@<TRIPOS>SET
DONOR_HYDROGENS      STATIC     ATOMS    <user>   **** ""
3 2 3 4
ATOM$RED        STATIC     ATOMS    COLORGROUP SYSTEM
3 2 3 4
