#       Name:                ACH
#       Creating user name   gbret
#       Creation time:       Fri Sep  9 03:36:30 2016


#       File generated by GOLD software.
#

@<TRIPOS>MOLECULE
ACH
    26    25     1
SMALL
NO_CHARGES


@<TRIPOS>ATOM
      1 C1           2.4832   2.6853   0.9290 C.3            1 <1>                0.0000
      2 C2           2.2792   1.1929   0.8838 C.2            1 <1>                0.0000
      3 O3           3.2342   0.4528   0.8696 O.2            1 <1>                0.0000
      4 O4           1.0367   0.6857   0.8593 O.3            1 <1>                0.0000
      5 C5           0.9157  -0.7606   0.8160 C.3            1 <1>                0.0000
      6 C6          -0.5642  -1.1481   0.7931 C.3            1 <1>                0.0000
      7 N7          -1.1677  -0.7020  -0.4697 N.4            1 <1>                0.0000
      8 C8          -0.3941  -1.2369  -1.5980 C.3            1 <1>                0.0000
      9 C9          -2.5514  -1.1889  -0.5500 C.3            1 <1>                0.0000
     10 C10         -1.1613   0.7660  -0.5237 C.3            1 <1>                0.0000
     11 H11          3.5505   2.9059   0.9438 H              1 <1>                0.0000
     12 H12          2.0302   3.1408   0.0485 H              1 <1>                0.0000
     13 H13          2.0163   3.0888   1.8276 H              1 <1>                0.0000
     14 H14          1.4044  -1.1393  -0.0816 H              1 <1>                0.0000
     15 H15          1.3905  -1.1914   1.6975 H              1 <1>                0.0000
     16 H16         -0.6576  -2.2308   0.8780 H              1 <1>                0.0000
     17 H17         -1.0773  -0.6726   1.6290 H              1 <1>                0.0000
     18 H18         -0.3988  -2.3262  -1.5579 H              1 <1>                0.0000
     19 H19         -0.8419  -0.9059  -2.5350 H              1 <1>                0.0000
     20 H20          0.6326  -0.8756  -1.5384 H              1 <1>                0.0000
     21 H21         -3.1254  -0.7920   0.2872 H              1 <1>                0.0000
     22 H22         -2.9992  -0.8579  -1.4870 H              1 <1>                0.0000
     23 H23         -2.5561  -2.2782  -0.5099 H              1 <1>                0.0000
     24 H24         -0.1401   1.1200  -0.6646 H              1 <1>                0.0000
     25 H25         -1.7802   1.1017  -1.3558 H              1 <1>                0.0000
     26 H26         -1.5590   1.1657   0.4092 H              1 <1>                0.0000
@<TRIPOS>BOND
    1    1    2 1     
    2    1   11 1     
    3    1   12 1     
    4    1   13 1     
    5    2    3 2     
    6    2    4 1     
    7    4    5 1     
    8    5    6 1     
    9    5   14 1     
   10    5   15 1     
   11    6    7 1     
   12    6   16 1     
   13    6   17 1     
   14    7    8 1     
   15    7    9 1     
   16    7   10 1     
   17    8   18 1     
   18    8   19 1     
   19    8   20 1     
   20    9   21 1     
   21    9   22 1     
   22    9   23 1     
   23   10   24 1     
   24   10   25 1     
   25   10   26 1     
@<TRIPOS>SUBSTRUCTURE
      1 ****           1
