#       Name:                AD8
#       Creating user name   gbret
#       Creation time:       Fri Sep  9 03:38:23 2016


#       File generated by GOLD software.
#

@<TRIPOS>MOLECULE
AD8
    38    41     1
SMALL
NO_CHARGES


@<TRIPOS>ATOM
      1 O1           1.0097  -2.0804  -0.0453 O.2            1 <1>                0.0000
      2 C2           0.9933  -0.8729  -0.0386 C.2            1 <1>                0.0000
      3 C3           2.2880  -0.1017  -0.0469 C.3            1 <1>                0.0000
      4 N4           3.4143  -1.0385  -0.0626 N.pl3          1 <1>                0.0000
      5 C5           4.0457  -1.5680   1.0303 C.2            1 <1>                0.0000
      6 C6           5.0178  -2.3757   0.5654 C.2            1 <1>                0.0000
      7 N7           4.9809  -2.3404  -0.7749 N.2            1 <1>                0.0000
      8 C8           4.0196  -1.5453  -1.1582 C.2            1 <1>                0.0000
      9 C9          -0.3219  -0.1372  -0.0284 C.3            1 <1>                0.0000
     10 C10         -0.4208   0.7480  -1.2724 C.3            1 <1>                0.0000
     11 C11         -1.7560   1.4949  -1.2620 C.3            1 <1>                0.0000
     12 C12         -1.8431   2.3665  -0.0076 C.3            1 <1>                0.0000
     13 C13         -1.7442   1.4813   1.2364 C.3            1 <1>                0.0000
     14 C14         -2.8935   0.4714   1.2364 C.3            1 <1>                0.0000
     15 C15         -2.8065  -0.4002  -0.0181 C.3            1 <1>                0.0000
     16 C16         -2.9054   0.4850  -1.2620 C.3            1 <1>                0.0000
     17 C17         -1.4712  -1.1472  -0.0284 C.3            1 <1>                0.0000
     18 C18         -0.4089   0.7344   1.2260 C.3            1 <1>                0.0000
     19 H19          2.3287   0.5304  -0.9339 H              1 <1>                0.0000
     20 H20          2.3457   0.5209   0.8460 H              1 <1>                0.0000
     21 H21          3.8099  -1.3748   2.0664 H              1 <1>                0.0000
     22 H22          5.7063  -2.9511   1.1664 H              1 <1>                0.0000
     23 H23          3.7563  -1.3241  -2.1820 H              1 <1>                0.0000
     24 H24          0.3980   1.4675  -1.2724 H              1 <1>                0.0000
     25 H25         -0.3588   0.1270  -2.1661 H              1 <1>                0.0000
     26 H26         -1.8265   2.1256  -2.1482 H              1 <1>                0.0000
     27 H27         -1.0243   3.0860  -0.0076 H              1 <1>                0.0000
     28 H28         -2.7944   2.8987  -0.0002 H              1 <1>                0.0000
     29 H29         -1.8062   2.1023   2.1301 H              1 <1>                0.0000
     30 H30         -2.8231  -0.1593   2.1226 H              1 <1>                0.0000
     31 H31         -3.8448   1.0035   1.2438 H              1 <1>                0.0000
     32 H32         -3.6253  -1.1197  -0.0181 H              1 <1>                0.0000
     33 H33         -3.8566   1.0171  -1.2546 H              1 <1>                0.0000
     34 H34         -2.8433  -0.1360  -2.1557 H              1 <1>                0.0000
     35 H35         -1.4092  -1.7681  -0.9221 H              1 <1>                0.0000
     36 H36         -1.4007  -1.7778   0.8578 H              1 <1>                0.0000
     37 H37         -0.3385   0.1038   2.1123 H              1 <1>                0.0000
     38 H38          0.4099   1.4539   1.2260 H              1 <1>                0.0000
@<TRIPOS>BOND
    1    1    2 2     
    2    2    3 1     
    3    2    9 1     
    4    3    4 1     
    5    3   19 1     
    6    3   20 1     
    7    4    8 1     
    8    4    5 1     
    9    5    6 2     
   10    5   21 1     
   11    6    7 1     
   12    6   22 1     
   13    7    8 2     
   14    8   23 1     
   15    9   17 1     
   16    9   18 1     
   17    9   10 1     
   18   10   11 1     
   19   10   24 1     
   20   10   25 1     
   21   11   16 1     
   22   11   12 1     
   23   11   26 1     
   24   12   13 1     
   25   12   27 1     
   26   12   28 1     
   27   13   14 1     
   28   13   18 1     
   29   13   29 1     
   30   14   15 1     
   31   14   30 1     
   32   14   31 1     
   33   15   16 1     
   34   15   17 1     
   35   15   32 1     
   36   16   33 1     
   37   16   34 1     
   38   17   35 1     
   39   17   36 1     
   40   18   37 1     
   41   18   38 1     
@<TRIPOS>SUBSTRUCTURE
      1 ****           1
