#       Name:                AGO
#       Creating user name   gbret
#       Creation time:       Fri Sep  9 03:45:05 2016


#       File generated by GOLD software.
#

@<TRIPOS>MOLECULE
AGO
    60    63     1
SMALL
NO_CHARGES


@<TRIPOS>ATOM
      1 C1          -0.3389   7.3448  -0.6502 C.3            1 <1>                0.0000
      2 N2          -0.3497   5.8800  -0.6735 N.pl3          1 <1>                0.0000
      3 C3           0.2344   5.1983  -1.7325 C.ar           1 <1>                0.0000
      4 C4           0.7305   5.8986  -2.8254 C.ar           1 <1>                0.0000
      5 C5           1.3104   5.2189  -3.8765 C.ar           1 <1>                0.0000
      6 C6           1.4034   3.8359  -3.8526 C.ar           1 <1>                0.0000
      7 C7           0.9180   3.1241  -2.7782 C.ar           1 <1>                0.0000
      8 C8           0.3322   3.7979  -1.7025 C.ar           1 <1>                0.0000
      9 C9          -0.1891   3.0431  -0.5502 C.2            1 <1>                0.0000
     10 O10         -0.7922   3.6212   0.3323 O.2            1 <1>                0.0000
     11 O11          0.0029   1.7113  -0.4745 O.3            1 <1>                0.0000
     12 C12         -0.5383   1.0324   0.6893 C.3            1 <1>                0.0000
     13 C13         -0.7959  -0.4648   0.3837 C.3            1 <1>                0.0000
     14 C14         -1.2987  -0.6453  -1.0500 C.3            1 <1>                0.0000
     15 O15         -1.6379  -2.0164  -1.2669 O.3            1 <1>                0.0000
     16 P16         -2.2034  -2.5686  -2.6695 P.3            1 <1>                0.0000
     17 O17         -3.5844  -1.9364  -2.9528 O.co2          1 <1>                0.0000
     18 O18         -1.2231  -2.1938  -3.8034 O.co2          1 <1>                0.0000
     19 O19         -2.3512  -4.1701  -2.5955 O.3            1 <1>                0.0000
     20 P20         -2.4533  -5.3361  -3.7009 P.3            1 <1>                0.0000
     21 O21         -3.6937  -5.0957  -4.5901 O.co2          1 <1>                0.0000
     22 O22         -1.1814  -5.3271  -4.5779 O.co2          1 <1>                0.0000
     23 N23         -2.5943  -6.8268  -2.9325 N.3            1 <1>                0.0000
     24 P24         -2.7039  -8.0760  -4.0550 P.3            1 <1>                0.0000
     25 O25         -1.4164  -8.0906  -4.9475 O.co2          1 <1>                0.0000
     26 O26         -2.8336  -9.4441  -3.3028 O.co2          1 <1>                0.0000
     27 O27         -3.9639  -7.8560  -4.9597 O.co2          1 <1>                0.0000
     28 O28          0.5100  -1.0611   0.5455 O.3            1 <1>                0.0000
     29 C29          1.1158  -0.4148   1.6774 C.3            1 <1>                0.0000
     30 C30          0.4961   0.9634   1.8062 C.2            1 <1>                0.0000
     31 O31          0.7635   1.8183   2.6161 O.2            1 <1>                0.0000
     32 N32          0.8552  -1.1921   2.8915 N.pl3          1 <1>                0.0000
     33 C33         -0.1711  -2.0712   3.0823 C.2            1 <1>                0.0000
     34 N34         -0.0977  -2.5824   4.2764 N.2            1 <1>                0.0000
     35 C35          0.9759  -2.0641   4.9211 C.2            1 <1>                0.0000
     36 C36          1.5998  -1.1738   4.0396 C.2            1 <1>                0.0000
     37 N37          2.6984  -0.5165   4.4286 N.2            1 <1>                0.0000
     38 C38          3.2057  -0.6913   5.6285 C.2            1 <1>                0.0000
     39 N39          4.3336   0.0052   5.9830 N.pl3          1 <1>                0.0000
     40 N40          2.6435  -1.5442   6.5309 N.am           1 <1>                0.0000
     41 H41          3.0429  -1.6501   7.4085 H              1 <1>                0.0000
     42 C42          1.5346  -2.2459   6.2079 C.2            1 <1>                0.0000
     43 O43          1.0244  -3.0112   7.0081 O.2            1 <1>                0.0000
     44 H44          0.6913   7.7007  -0.6563 H              1 <1>                0.0000
     45 H45         -0.8603   7.7259  -1.5282 H              1 <1>                0.0000
     46 H46         -0.8398   7.6975   0.2514 H              1 <1>                0.0000
     47 H47         -0.7649   5.3864   0.0510 H              1 <1>                0.0000
     48 H48          0.6617   6.9760  -2.8521 H              1 <1>                0.0000
     49 H49          1.6942   5.7678  -4.7237 H              1 <1>                0.0000
     50 H50          1.8588   3.3139  -4.6812 H              1 <1>                0.0000
     51 H51          0.9932   2.0468  -2.7650 H              1 <1>                0.0000
     52 H52         -1.4486   1.5231   1.0338 H              1 <1>                0.0000
     53 H53         -1.5057  -0.8866   1.0953 H              1 <1>                0.0000
     54 H54         -2.1803  -0.0237  -1.2068 H              1 <1>                0.0000
     55 H55         -0.5166  -0.3495  -1.7493 H              1 <1>                0.0000
     56 H56         -1.8267  -6.9793  -2.2956 H              1 <1>                0.0000
     57 H57          2.1904  -0.3234   1.5194 H              1 <1>                0.0000
     58 H58         -0.9307  -2.3070   2.3516 H              1 <1>                0.0000
     59 H59          4.7450   0.6161   5.3517 H              1 <1>                0.0000
     60 H60          4.7195  -0.1132   6.8651 H              1 <1>                0.0000
@<TRIPOS>BOND
    1    1    2 1     
    2    1   44 1     
    3    1   45 1     
    4    1   46 1     
    5    2    3 1     
    6    2   47 1     
    7    3    8 ar    
    8    3    4 ar    
    9    4    5 ar    
   10    4   48 1     
   11    5    6 ar    
   12    5   49 1     
   13    6    7 ar    
   14    6   50 1     
   15    7    8 ar    
   16    7   51 1     
   17    8    9 1     
   18    9   10 2     
   19    9   11 1     
   20   11   12 1     
   21   12   30 1     
   22   12   13 1     
   23   12   52 1     
   24   13   14 1     
   25   13   28 1     
   26   13   53 1     
   27   14   15 1     
   28   14   54 1     
   29   14   55 1     
   30   15   16 1     
   31   16   17 ar    
   32   16   18 ar    
   33   16   19 1     
   34   19   20 1     
   35   20   21 ar    
   36   20   22 ar    
   37   20   23 1     
   38   23   24 1     
   39   23   56 1     
   40   24   25 ar    
   41   24   26 ar    
   42   24   27 ar    
   43   28   29 1     
   44   29   30 1     
   45   29   32 1     
   46   29   57 1     
   47   30   31 2     
   48   32   36 1     
   49   32   33 1     
   50   33   34 2     
   51   33   58 1     
   52   34   35 1     
   53   35   42 1     
   54   35   36 2     
   55   36   37 1     
   56   37   38 2     
   57   38   39 1     
   58   38   40 1     
   59   39   59 1     
   60   39   60 1     
   61   40   41 1     
   62   40   42 am    
   63   42   43 2     
@<TRIPOS>SUBSTRUCTURE
      1 ****           1
@<TRIPOS>SET
DONOR_HYDROGENS      STATIC     ATOMS    <user>   **** ""
5 47 56 59 60 41
ATOM$RED        STATIC     ATOMS    COLORGROUP SYSTEM
5 47 56 59 60 41
