#       Name:                AGY
#       Creating user name   gbret
#       Creation time:       Fri Sep  9 03:45:48 2016


#       File generated by GOLD software.
#

@<TRIPOS>MOLECULE
AGY
    52    54     1
SMALL
NO_CHARGES


@<TRIPOS>ATOM
      1 C1          -1.2004 -10.2603   4.3926 C.3            1 <1>                0.0000
      2 C2          -2.1064  -9.0964   4.7995 C.3            1 <1>                0.0000
      3 C3          -3.5653  -9.4646   4.5216 C.3            1 <1>                0.0000
      4 C4          -1.9283  -8.8089   6.2916 C.3            1 <1>                0.0000
      5 C5          -1.7373  -7.8708   4.0041 C.ar           1 <1>                0.0000
      6 C6          -0.8796  -7.9830   2.9240 C.ar           1 <1>                0.0000
      7 C7          -0.5380  -6.8652   2.1916 C.ar           1 <1>                0.0000
      8 C8          -1.0597  -5.6187   2.5421 C.ar           1 <1>                0.0000
      9 C9          -1.9242  -5.5125   3.6324 C.ar           1 <1>                0.0000
     10 C10         -2.2619  -6.6393   4.3535 C.ar           1 <1>                0.0000
     11 N11         -3.1787  -6.5286   5.5104 N.pl3          1 <1>                0.0000
     12 O12         -3.3011  -5.4648   6.0907 O.2            1 <1>                0.0000
     13 O13         -3.8106  -7.5013   5.8819 O.2            1 <1>                0.0000
     14 C14         -0.6976  -4.4162   1.7618 C.2            1 <1>                0.0000
     15 O15         -1.1534  -3.3322   2.0693 O.2            1 <1>                0.0000
     16 N16          0.1379  -4.5222   0.7095 N.am           1 <1>                0.0000
     17 N17          0.4811  -3.3827  -0.0298 N.am           1 <1>                0.0000
     18 C18          1.3165  -3.4885  -1.0821 C.2            1 <1>                0.0000
     19 O19          1.7723  -4.5728  -1.3900 O.2            1 <1>                0.0000
     20 N20          1.6466  -2.3922  -1.7933 N.am           1 <1>                0.0000
     21 C21          2.4353  -2.5146  -2.9390 C.ar           1 <1>                0.0000
     22 C22          2.3431  -3.6398  -3.7296 C.ar           1 <1>                0.0000
     23 C23          3.1250  -3.7719  -4.8732 C.ar           1 <1>                0.0000
     24 C24          4.0002  -2.7965  -5.2430 C.ar           1 <1>                0.0000
     25 C25          4.1240  -1.6333  -4.4646 C.ar           1 <1>                0.0000
     26 C26          5.0190  -0.6098  -4.8219 C.ar           1 <1>                0.0000
     27 C27          5.1137   0.5037  -4.0450 C.ar           1 <1>                0.0000
     28 C28          4.3360   0.6459  -2.8975 C.ar           1 <1>                0.0000
     29 C29          3.4588  -0.3249  -2.5211 C.ar           1 <1>                0.0000
     30 C30          3.3295  -1.4850  -3.3010 C.ar           1 <1>                0.0000
     31 H31         -1.3272 -10.4652   3.3295 H              1 <1>                0.0000
     32 H32         -0.1611  -9.9981   4.5906 H              1 <1>                0.0000
     33 H33         -1.4673 -11.1469   4.9679 H              1 <1>                0.0000
     34 H34         -3.9624 -10.0349   5.3612 H              1 <1>                0.0000
     35 H35         -4.1510  -8.5546   4.3909 H              1 <1>                0.0000
     36 H36         -3.6217 -10.0663   3.6144 H              1 <1>                0.0000
     37 H37         -0.8878  -8.9733   6.5716 H              1 <1>                0.0000
     38 H38         -2.2007  -7.7737   6.4972 H              1 <1>                0.0000
     39 H39         -2.5696  -9.4749   6.8690 H              1 <1>                0.0000
     40 H40         -0.4763  -8.9479   2.6541 H              1 <1>                0.0000
     41 H41          0.1318  -6.9541   1.3490 H              1 <1>                0.0000
     42 H42         -2.3312  -4.5510   3.9088 H              1 <1>                0.0000
     43 H43          0.5017  -5.3872   0.4642 H              1 <1>                0.0000
     44 H44          0.1173  -2.5175   0.2155 H              1 <1>                0.0000
     45 H45          1.3363  -1.5182  -1.5092 H              1 <1>                0.0000
     46 H46          1.6566  -4.4281  -3.4583 H              1 <1>                0.0000
     47 H47          3.0364  -4.6629  -5.4771 H              1 <1>                0.0000
     48 H48          4.5989  -2.9170  -6.1337 H              1 <1>                0.0000
     49 H49          5.6286  -0.7067  -5.7081 H              1 <1>                0.0000
     50 H50          5.8021   1.2885  -4.3218 H              1 <1>                0.0000
     51 H51          4.4307   1.5391  -2.2978 H              1 <1>                0.0000
     52 H52          2.8623  -0.2013  -1.6293 H              1 <1>                0.0000
@<TRIPOS>BOND
    1    1    2 1     
    2    1   31 1     
    3    1   32 1     
    4    1   33 1     
    5    2    3 1     
    6    2    4 1     
    7    2    5 1     
    8    3   34 1     
    9    3   35 1     
   10    3   36 1     
   11    4   37 1     
   12    4   38 1     
   13    4   39 1     
   14    5   10 ar    
   15    5    6 ar    
   16    6    7 ar    
   17    6   40 1     
   18    7    8 ar    
   19    7   41 1     
   20    8    9 ar    
   21    8   14 1     
   22    9   10 ar    
   23    9   42 1     
   24   10   11 1     
   25   11   12 2     
   26   11   13 2     
   27   14   15 2     
   28   14   16 am    
   29   16   17 1     
   30   16   43 1     
   31   17   18 am    
   32   17   44 1     
   33   18   19 2     
   34   18   20 am    
   35   20   21 1     
   36   20   45 1     
   37   21   30 ar    
   38   21   22 ar    
   39   22   23 ar    
   40   22   46 1     
   41   23   24 ar    
   42   23   47 1     
   43   24   25 ar    
   44   24   48 1     
   45   25   30 ar    
   46   25   26 ar    
   47   26   27 ar    
   48   26   49 1     
   49   27   28 ar    
   50   27   50 1     
   51   28   29 ar    
   52   28   51 1     
   53   29   30 ar    
   54   29   52 1     
@<TRIPOS>SUBSTRUCTURE
      1 ****           1
@<TRIPOS>SET
DONOR_HYDROGENS      STATIC     ATOMS    <user>   **** ""
3 43 44 45
ATOM$RED        STATIC     ATOMS    COLORGROUP SYSTEM
3 43 44 45
