#       Name:                AHL
#       Creating user name   gbret
#       Creation time:       Fri Sep  9 03:46:40 2016


#       File generated by GOLD software.
#

@<TRIPOS>MOLECULE
AHL
    30    29     1
SMALL
NO_CHARGES


@<TRIPOS>ATOM
      1 N1           3.8625   1.7923   0.0217 N.pl3          1 <1>                0.0000
      2 C2           3.8806   0.4605   0.0144 C.cat          1 <1>                0.0000
      3 N3           5.0430  -0.1897  -0.0002 N.pl3          1 <1>                0.0000
      4 H4           5.0561  -1.1596  -0.0055 H              1 <1>                0.0000
      5 H5           5.8763   0.3067  -0.0055 H              1 <1>                0.0000
      6 N6           2.7054  -0.2394   0.0219 N.pl3          1 <1>                0.0000
      7 C7           1.4269   0.4757   0.0379 C.3            1 <1>                0.0000
      8 C8           0.2777  -0.5343   0.0435 C.3            1 <1>                0.0000
      9 C9          -1.0575   0.2126   0.0602 C.3            1 <1>                0.0000
     10 C10         -2.2068  -0.7973   0.0658 C.3            1 <1>                0.0000
     11 N11         -2.1763  -1.5670   1.3167 N.4            1 <1>                0.0000
     12 H12         -1.2974  -2.0572   1.3886 H              1 <1>                0.0000
     13 H13         -2.2764  -0.9393   2.1003 H              1 <1>                0.0000
     14 H14         -2.9342  -2.2330   1.3203 H              1 <1>                0.0000
     15 C15         -3.5196  -0.0651  -0.0416 C.2            1 <1>                0.0000
     16 O16         -4.1866   0.1327   0.9518 O.2            1 <1>                0.0000
     17 N17         -3.9523   0.3700  -1.2415 N.am           1 <1>                0.0000
     18 O18         -5.1858   1.0580  -1.3424 O.3            1 <1>                0.0000
     19 H19          4.6959   2.2887   0.0165 H              1 <1>                0.0000
     20 H20          3.0160   2.2659   0.0283 H              1 <1>                0.0000
     21 H21          2.7186  -1.2093   0.0165 H              1 <1>                0.0000
     22 H22          1.3692   1.0967   0.9318 H              1 <1>                0.0000
     23 H23          1.3522   1.1063  -0.8480 H              1 <1>                0.0000
     24 H24          0.3354  -1.1553  -0.8504 H              1 <1>                0.0000
     25 H25          0.3524  -1.1648   0.9294 H              1 <1>                0.0000
     26 H26         -1.1153   0.8337   0.9542 H              1 <1>                0.0000
     27 H27         -1.1323   0.8432  -0.8257 H              1 <1>                0.0000
     28 H28         -2.0987  -1.4754  -0.7807 H              1 <1>                0.0000
     29 H29         -3.4188   0.2118  -2.0361 H              1 <1>                0.0000
     30 H30         -5.4117   1.3306  -2.2423 H              1 <1>                0.0000
@<TRIPOS>BOND
    1    1    2 ar    
    2    1   19 1     
    3    1   20 1     
    4    2    3 ar    
    5    2    6 ar    
    6    3    4 1     
    7    3    5 1     
    8    6    7 1     
    9    6   21 1     
   10    7    8 1     
   11    7   22 1     
   12    7   23 1     
   13    8    9 1     
   14    8   24 1     
   15    8   25 1     
   16    9   10 1     
   17    9   26 1     
   18    9   27 1     
   19   10   11 1     
   20   10   15 1     
   21   10   28 1     
   22   11   12 1     
   23   11   13 1     
   24   11   14 1     
   25   15   16 2     
   26   15   17 am    
   27   17   18 1     
   28   17   29 1     
   29   18   30 1     
@<TRIPOS>SUBSTRUCTURE
      1 ****           1
@<TRIPOS>SET
DONOR_HYDROGENS      STATIC     ATOMS    <user>   **** ""
10 19 20 4 5 21 12 13 14 29 30
ATOM$RED        STATIC     ATOMS    COLORGROUP SYSTEM
10 19 20 4 5 21 12 13 14 29 30
