#       Name:                AI8
#       Creating user name   gbret
#       Creation time:       Fri Sep  9 03:47:45 2016


#       File generated by GOLD software.
#

@<TRIPOS>MOLECULE
AI8
    62    65     1
SMALL
NO_CHARGES


@<TRIPOS>ATOM
      1 C1          -0.5204   7.8213   1.9637 C.3            1 <1>                0.0000
      2 C2          -0.7438   6.3318   1.6945 C.3            1 <1>                0.0000
      3 O3          -2.1462   6.0601   1.6546 O.3            1 <1>                0.0000
      4 N4          -2.4630   4.7019   1.4099 N.2            1 <1>                0.0000
      5 C5          -3.7072   4.3244   1.3496 C.2            1 <1>                0.0000
      6 C6          -4.0385   2.9036   1.0936 C.2            1 <1>                0.0000
      7 O7          -5.2001   2.5512   1.0374 O.2            1 <1>                0.0000
      8 N8          -3.0517   2.0016   0.9230 N.am           1 <1>                0.0000
      9 C9          -3.3794   0.5964   0.6698 C.3            1 <1>                0.0000
     10 C10         -3.6219   0.3948  -0.8038 C.2            1 <1>                0.0000
     11 O11         -3.5304   1.3285  -1.5641 O.2            1 <1>                0.0000
     12 C12         -2.2153  -0.2881   1.1208 C.3            1 <1>                0.0000
     13 N13         -2.4731  -1.6785   0.7362 N.4            1 <1>                0.0000
     14 H14         -3.2644  -2.0170   1.2629 H              1 <1>                0.0000
     15 H15         -2.7060  -1.7034  -0.2452 H              1 <1>                0.0000
     16 C16         -1.4089  -2.5203   0.9536 C.2            1 <1>                0.0000
     17 C17         -1.7567  -3.8770   1.0782 C.2            1 <1>                0.0000
     18 O18         -2.0229  -4.3891   2.2796 O.co2          1 <1>                0.0000
     19 O19         -1.8203  -4.6509  -0.0051 O.co2          1 <1>                0.0000
     20 C20         -0.1102  -2.2746   1.0658 C.2            1 <1>                0.0000
     21 C21          0.5211  -0.9083   1.0265 C.3            1 <1>                0.0000
     22 S22         -0.6799   0.2542   0.3047 S.3            1 <1>                0.0000
     23 S23          0.9613  -3.6572   1.2783 S.3            1 <1>                0.0000
     24 C24          1.8762  -3.5691  -0.2249 C.2            1 <1>                0.0000
     25 N25          2.8938  -4.3139  -0.5275 N.2            1 <1>                0.0000
     26 C26          3.4613  -4.1074  -1.7077 C.2            1 <1>                0.0000
     27 C27          2.9020  -3.1367  -2.4543 C.2            1 <1>                0.0000
     28 S28          1.5465  -2.4611  -1.5534 S.3            1 <1>                0.0000
     29 C29          4.6305  -4.8904  -2.1727 C.ar           1 <1>                0.0000
     30 C30          5.2100  -4.6433  -3.4216 C.ar           1 <1>                0.0000
     31 C31          6.2968  -5.3953  -3.8151 C.ar           1 <1>                0.0000
     32 N32          6.7890  -6.3364  -3.0315 N.pl3          1 <1>                0.0000
     33 C33          7.9444  -7.1107  -3.4914 C.3            1 <1>                0.0000
     34 C34          6.2724  -6.6010  -1.8463 C.ar           1 <1>                0.0000
     35 C35          5.1883  -5.8928  -1.3724 C.ar           1 <1>                0.0000
     36 C36         -4.7917   5.3157   1.5371 C.2            1 <1>                0.0000
     37 N37         -6.0523   4.9623   1.4870 N.2            1 <1>                0.0000
     38 S38         -6.9418   6.3861   1.7494 S.3            1 <1>                0.0000
     39 C39         -5.5536   7.3924   1.9146 C.2            1 <1>                0.0000
     40 N40         -5.5278   8.7536   2.1566 N.pl3          1 <1>                0.0000
     41 N41         -4.5249   6.5892   1.7668 N.2            1 <1>                0.0000
     42 H42          0.5493   8.0285   1.9942 H              1 <1>                0.0000
     43 H43         -0.9815   8.4074   1.1688 H              1 <1>                0.0000
     44 H44         -0.9697   8.0890   2.9200 H              1 <1>                0.0000
     45 H45         -0.2945   6.0640   0.7382 H              1 <1>                0.0000
     46 H46         -0.2827   5.7457   2.4895 H              1 <1>                0.0000
     47 H47         -2.1245   2.2829   0.9679 H              1 <1>                0.0000
     48 H48         -4.2772   0.3268   1.2260 H              1 <1>                0.0000
     49 H49         -3.8775  -0.5848  -1.1800 H              1 <1>                0.0000
     50 H50         -2.1001  -0.2206   2.2026 H              1 <1>                0.0000
     51 H51          0.7767  -0.5923   2.0379 H              1 <1>                0.0000
     52 H52          1.4205  -0.9365   0.4114 H              1 <1>                0.0000
     53 H53          3.2255  -2.8282  -3.4374 H              1 <1>                0.0000
     54 H54          4.8120  -3.8752  -4.0682 H              1 <1>                0.0000
     55 H55          6.7512  -5.2120  -4.7775 H              1 <1>                0.0000
     56 H56          8.8627  -6.6151  -3.1763 H              1 <1>                0.0000
     57 H57          7.9057  -8.1115  -3.0612 H              1 <1>                0.0000
     58 H58          7.9247  -7.1817  -4.5789 H              1 <1>                0.0000
     59 H59          6.7073  -7.3799  -1.2375 H              1 <1>                0.0000
     60 H60          4.7709  -6.1144  -0.4013 H              1 <1>                0.0000
     61 H61         -6.3585   9.2450   2.2524 H              1 <1>                0.0000
     62 H62         -4.6788   9.2169   2.2306 H              1 <1>                0.0000
@<TRIPOS>BOND
    1    1    2 1     
    2    1   42 1     
    3    1   43 1     
    4    1   44 1     
    5    2    3 1     
    6    2   45 1     
    7    2   46 1     
    8    3    4 1     
    9    4    5 2     
   10    5    6 1     
   11    5   36 1     
   12    6    7 2     
   13    6    8 am    
   14    8    9 1     
   15    8   47 1     
   16    9   10 1     
   17    9   12 1     
   18    9   48 1     
   19   10   11 2     
   20   10   49 1     
   21   12   22 1     
   22   12   13 1     
   23   12   50 1     
   24   13   14 1     
   25   13   15 1     
   26   13   16 1     
   27   16   17 1     
   28   16   20 2     
   29   17   18 ar    
   30   17   19 ar    
   31   20   21 1     
   32   20   23 1     
   33   21   22 1     
   34   21   51 1     
   35   21   52 1     
   36   23   24 1     
   37   24   28 1     
   38   24   25 2     
   39   25   26 1     
   40   26   27 2     
   41   26   29 1     
   42   27   28 1     
   43   27   53 1     
   44   29   35 ar    
   45   29   30 ar    
   46   30   31 ar    
   47   30   54 1     
   48   31   32 ar    
   49   31   55 1     
   50   32   33 1     
   51   32   34 ar    
   52   33   56 1     
   53   33   57 1     
   54   33   58 1     
   55   34   35 ar    
   56   34   59 1     
   57   35   60 1     
   58   36   41 1     
   59   36   37 2     
   60   37   38 1     
   61   38   39 1     
   62   39   40 1     
   63   39   41 2     
   64   40   61 1     
   65   40   62 1     
@<TRIPOS>SUBSTRUCTURE
      1 ****           1
@<TRIPOS>SET
DONOR_HYDROGENS      STATIC     ATOMS    <user>   **** ""
5 47 14 15 61 62
ATOM$RED        STATIC     ATOMS    COLORGROUP SYSTEM
5 47 14 15 61 62
