#       Name:                AP6
#       Creating user name   gbret
#       Creation time:       Fri Sep  9 04:00:48 2016


#       File generated by GOLD software.
#

@<TRIPOS>MOLECULE
AP6
    32    34     1
SMALL
NO_CHARGES


@<TRIPOS>ATOM
      1 N1          -0.7114   5.5047   0.0398 N.pl3          1 <1>                0.0000
      2 C2          -0.6926   4.1182   0.0322 C.ar           1 <1>                0.0000
      3 N3          -1.8404   3.4580   0.0342 N.ar           1 <1>                0.0000
      4 C4          -1.8653   2.1275   0.0296 C.ar           1 <1>                0.0000
      5 N5          -3.0755   1.4447   0.0315 N.pl3          1 <1>                0.0000
      6 C6          -0.6559   1.4275   0.0224 C.ar           1 <1>                0.0000
      7 N7          -0.6645   0.0249   0.0286 N.3            1 <1>                0.0000
      8 C8           0.5806  -0.5530  -0.4881 C.3            1 <1>                0.0000
      9 C9           1.7693   0.0605   0.2645 C.3            1 <1>                0.0000
     10 N10          1.7570   1.5095   0.0013 N.pl3          1 <1>                0.0000
     11 C11          0.5260   2.1599   0.0161 C.ar           1 <1>                0.0000
     12 N12          0.4730   3.4892   0.0177 N.ar           1 <1>                0.0000
     13 C13          0.5681  -2.0454  -0.2794 C.ar           1 <1>                0.0000
     14 C14          0.0578  -2.5753   0.8909 C.ar           1 <1>                0.0000
     15 C15          0.0463  -3.9443   1.0824 C.ar           1 <1>                0.0000
     16 C16          0.5447  -4.7834   0.1034 C.ar           1 <1>                0.0000
     17 C17          1.0541  -4.2534  -1.0674 C.ar           1 <1>                0.0000
     18 C18          1.0617  -2.8847  -1.2606 C.ar           1 <1>                0.0000
     19 H19          0.1219   6.0011   0.0345 H              1 <1>                0.0000
     20 H20         -1.5580   5.9783   0.0465 H              1 <1>                0.0000
     21 H21         -3.9107   1.9380   0.0362 H              1 <1>                0.0000
     22 H22         -3.0851   0.4748   0.0282 H              1 <1>                0.0000
     23 H23         -0.8738  -0.3314   0.9491 H              1 <1>                0.0000
     24 H24          0.6703  -0.3334  -1.5520 H              1 <1>                0.0000
     25 H25          1.6651  -0.1227   1.3339 H              1 <1>                0.0000
     26 H26          2.7011  -0.3739  -0.0976 H              1 <1>                0.0000
     27 H27          2.5784   1.9941  -0.1760 H              1 <1>                0.0000
     28 H28         -0.3316  -1.9198   1.6558 H              1 <1>                0.0000
     29 H29         -0.3517  -4.3583   1.9970 H              1 <1>                0.0000
     30 H30          0.5364  -5.8529   0.2532 H              1 <1>                0.0000
     31 H31          1.4438  -4.9089  -1.8321 H              1 <1>                0.0000
     32 H32          1.4597  -2.4707  -2.1753 H              1 <1>                0.0000
@<TRIPOS>BOND
    1    1    2 1     
    2    1   19 1     
    3    1   20 1     
    4    2   12 ar    
    5    2    3 ar    
    6    3    4 ar    
    7    4    5 1     
    8    4    6 ar    
    9    5   21 1     
   10    5   22 1     
   11    6   11 ar    
   12    6    7 1     
   13    7    8 1     
   14    7   23 1     
   15    8    9 1     
   16    8   13 1     
   17    8   24 1     
   18    9   10 1     
   19    9   25 1     
   20    9   26 1     
   21   10   11 1     
   22   10   27 1     
   23   11   12 ar    
   24   13   18 ar    
   25   13   14 ar    
   26   14   15 ar    
   27   14   28 1     
   28   15   16 ar    
   29   15   29 1     
   30   16   17 ar    
   31   16   30 1     
   32   17   18 ar    
   33   17   31 1     
   34   18   32 1     
@<TRIPOS>SUBSTRUCTURE
      1 ****           1
@<TRIPOS>SET
DONOR_HYDROGENS      STATIC     ATOMS    <user>   **** ""
6 19 20 21 22 23 27
ATOM$RED        STATIC     ATOMS    COLORGROUP SYSTEM
6 19 20 21 22 23 27
