#       Name:                ASA
#       Creating user name   gbret
#       Creation time:       Fri Sep  9 04:06:51 2016


#       File generated by GOLD software.
#

@<TRIPOS>MOLECULE
ASA
    15    14     1
SMALL
NO_CHARGES


@<TRIPOS>ATOM
      1 N1           0.5100  -0.9593  -0.9131 N.4            1 <1>                0.0000
      2 H2           0.5237  -1.9682  -0.9187 H              1 <1>                0.0000
      3 H3           1.4566  -0.6100  -0.9203 H              1 <1>                0.0000
      4 H4           0.0220  -0.6250  -1.7306 H              1 <1>                0.0000
      5 C5          -0.1776  -0.4855   0.2955 C.3            1 <1>                0.0000
      6 C6          -0.1983   1.0443   0.3039 C.3            1 <1>                0.0000
      7 C7           1.2112   1.5652   0.4171 C.2            1 <1>                0.0000
      8 O8           2.1458   0.7851   0.4847 O.co2          1 <1>                0.0000
      9 O9           1.4171   2.7667   0.4410 O.co2          1 <1>                0.0000
     10 C10         -1.5914  -1.0072   0.3062 C.2            1 <1>                0.0000
     11 O11         -1.9855  -1.7019  -0.5995 O.2            1 <1>                0.0000
     12 H12          0.3496  -0.8466   1.1785 H              1 <1>                0.0000
     13 H13         -0.6464   1.4067  -0.6213 H              1 <1>                0.0000
     14 H14         -0.7846   1.3951   1.1532 H              1 <1>                0.0000
     15 H15         -2.2521  -0.7597   1.1239 H              1 <1>                0.0000
@<TRIPOS>BOND
    1    1    2 1     
    2    1    3 1     
    3    1    4 1     
    4    1    5 1     
    5    5    6 1     
    6    5   10 1     
    7    5   12 1     
    8    6    7 1     
    9    6   13 1     
   10    6   14 1     
   11    7    8 ar    
   12    7    9 ar    
   13   10   11 2     
   14   10   15 1     
@<TRIPOS>SUBSTRUCTURE
      1 ****           1
@<TRIPOS>SET
DONOR_HYDROGENS      STATIC     ATOMS    <user>   **** ""
3 2 3 4
ATOM$RED        STATIC     ATOMS    COLORGROUP SYSTEM
3 2 3 4
