#       Name:                ATA
#       Creating user name   gbret
#       Creation time:       Fri Sep  9 04:08:48 2016


#       File generated by GOLD software.
#

@<TRIPOS>MOLECULE
ATA
    62    62     1
SMALL
NO_CHARGES


@<TRIPOS>ATOM
      1 C1          -1.4136   6.1536   0.7598 C.3            1 <1>                0.0000
      2 C2          -1.3928   4.6237   0.7514 C.3            1 <1>                0.0000
      3 N3          -2.7672   4.1166   0.7618 N.pl3          1 <1>                0.0000
      4 C4          -3.0010   2.7564   0.7567 C.ar           1 <1>                0.0000
      5 N5          -4.2485   2.2963   0.7606 N.ar           1 <1>                0.0000
      6 C6          -4.4740   0.9862   0.7553 C.ar           1 <1>                0.0000
      7 N7          -5.7691   0.5090   0.7593 N.pl3          1 <1>                0.0000
      8 C8          -6.0177  -0.9347   0.7535 C.3            1 <1>                0.0000
      9 C9          -7.3897  -1.2185   1.3685 C.3            1 <1>                0.0000
     10 C10         -5.9875  -1.4516  -0.6863 C.3            1 <1>                0.0000
     11 N11         -3.4524   0.1358   0.7457 N.ar           1 <1>                0.0000
     12 C12         -2.2046   0.5957   0.7418 C.ar           1 <1>                0.0000
     13 S13         -0.8501  -0.5312   0.7284 S.3            1 <1>                0.0000
     14 C14          0.5315   0.6380   0.7278 C.3            1 <1>                0.0000
     15 C15          1.8526  -0.1337   0.7167 C.3            1 <1>                0.0000
     16 N16          1.9734  -0.8770  -0.5400 N.am           1 <1>                0.0000
     17 C17          2.7425  -1.9822  -0.5979 C.2            1 <1>                0.0000
     18 O18          3.3346  -2.3614   0.3903 O.2            1 <1>                0.0000
     19 C19          2.8667  -2.7469  -1.8906 C.3            1 <1>                0.0000
     20 C20          3.7906  -3.9490  -1.6853 C.3            1 <1>                0.0000
     21 C21          3.9167  -4.7253  -2.9977 C.3            1 <1>                0.0000
     22 N22          4.5872  -3.8866  -4.0002 N.4            1 <1>                0.0000
     23 H23          4.0454  -3.0497  -4.1552 H              1 <1>                0.0000
     24 H24          5.5064  -3.6355  -3.6683 H              1 <1>                0.0000
     25 H25          4.6704  -4.3986  -4.8657 H              1 <1>                0.0000
     26 C26          4.7260  -5.9753  -2.7661 C.2            1 <1>                0.0000
     27 O27          4.2595  -6.8906  -2.1095 O.co2          1 <1>                0.0000
     28 O28          5.8472  -6.0713  -3.2354 O.co2          1 <1>                0.0000
     29 C29          3.0009   0.8345   0.8400 C.2            1 <1>                0.0000
     30 O30          3.8378   0.8973  -0.0356 O.2            1 <1>                0.0000
     31 N31          3.0979   1.6304   1.9233 N.am           1 <1>                0.0000
     32 C32          4.2142   2.5715   2.0431 C.3            1 <1>                0.0000
     33 C33          4.0900   3.3362   3.3358 C.2            1 <1>                0.0000
     34 O34          3.1556   3.1154   4.0873 O.co2          1 <1>                0.0000
     35 O35          4.9239   4.1755   3.6301 O.co2          1 <1>                0.0000
     36 N36         -1.9792   1.9067   0.7424 N.ar           1 <1>                0.0000
     37 H37         -0.3910   6.5309   0.7521 H              1 <1>                0.0000
     38 H38         -1.9408   6.5146  -0.1232 H              1 <1>                0.0000
     39 H39         -1.9238   6.5051   1.6566 H              1 <1>                0.0000
     40 H40         -0.8826   4.2722  -0.1454 H              1 <1>                0.0000
     41 H41         -0.8656   4.2627   1.6345 H              1 <1>                0.0000
     42 H42         -3.5130   4.7369   0.7723 H              1 <1>                0.0000
     43 H43         -6.5146   1.1295   0.7661 H              1 <1>                0.0000
     44 H44         -5.2469  -1.4386   1.3367 H              1 <1>                0.0000
     45 H45         -8.1605  -0.7147   0.7853 H              1 <1>                0.0000
     46 H46         -7.5747  -2.2926   1.3641 H              1 <1>                0.0000
     47 H47         -7.4112  -0.8502   2.3942 H              1 <1>                0.0000
     48 H48         -6.7583  -0.9478  -1.2694 H              1 <1>                0.0000
     49 H49         -5.0101  -1.2495  -1.1244 H              1 <1>                0.0000
     50 H50         -6.1725  -2.5258  -0.6906 H              1 <1>                0.0000
     51 H51          0.4724   1.2699  -0.1583 H              1 <1>                0.0000
     52 H52          0.4816   1.2600   1.6216 H              1 <1>                0.0000
     53 H53          1.8734  -0.8306   1.5545 H              1 <1>                0.0000
     54 H54          1.4998  -0.5737  -1.3303 H              1 <1>                0.0000
     55 H55          1.8821  -3.0946  -2.2031 H              1 <1>                0.0000
     56 H56          3.2830  -2.0958  -2.6593 H              1 <1>                0.0000
     57 H57          4.7753  -3.6013  -1.3727 H              1 <1>                0.0000
     58 H58          3.3744  -4.6001  -0.9166 H              1 <1>                0.0000
     59 H59          2.9238  -4.9965  -3.3562 H              1 <1>                0.0000
     60 H60          2.4286   1.5801   2.6236 H              1 <1>                0.0000
     61 H61          5.1554   2.0218   2.0352 H              1 <1>                0.0000
     62 H62          4.1935   3.2685   1.2053 H              1 <1>                0.0000
@<TRIPOS>BOND
    1    1    2 1     
    2    1   37 1     
    3    1   38 1     
    4    1   39 1     
    5    2    3 1     
    6    2   40 1     
    7    2   41 1     
    8    3    4 1     
    9    3   42 1     
   10    4   36 ar    
   11    4    5 ar    
   12    5    6 ar    
   13    6    7 1     
   14    6   11 ar    
   15    7    8 1     
   16    7   43 1     
   17    8    9 1     
   18    8   10 1     
   19    8   44 1     
   20    9   45 1     
   21    9   46 1     
   22    9   47 1     
   23   10   48 1     
   24   10   49 1     
   25   10   50 1     
   26   11   12 ar    
   27   12   13 1     
   28   12   36 ar    
   29   13   14 1     
   30   14   15 1     
   31   14   51 1     
   32   14   52 1     
   33   15   16 1     
   34   15   29 1     
   35   15   53 1     
   36   16   17 am    
   37   16   54 1     
   38   17   18 2     
   39   17   19 1     
   40   19   20 1     
   41   19   55 1     
   42   19   56 1     
   43   20   21 1     
   44   20   57 1     
   45   20   58 1     
   46   21   22 1     
   47   21   26 1     
   48   21   59 1     
   49   22   23 1     
   50   22   24 1     
   51   22   25 1     
   52   26   27 ar    
   53   26   28 ar    
   54   29   30 2     
   55   29   31 am    
   56   31   32 1     
   57   31   60 1     
   58   32   33 1     
   59   32   61 1     
   60   32   62 1     
   61   33   34 ar    
   62   33   35 ar    
@<TRIPOS>SUBSTRUCTURE
      1 ****           1
@<TRIPOS>SET
DONOR_HYDROGENS      STATIC     ATOMS    <user>   **** ""
7 42 43 54 23 24 25 60
ATOM$RED        STATIC     ATOMS    COLORGROUP SYSTEM
7 42 43 54 23 24 25 60
