#       Name:                AXW
#       Creating user name   gbret
#       Creation time:       Fri Sep  9 04:14:31 2016


#       File generated by GOLD software.
#

@<TRIPOS>MOLECULE
AXW
    55    57     1
SMALL
NO_CHARGES


@<TRIPOS>ATOM
      1 C1          -0.3954   3.6263  -3.5604 C.3            1 <1>                0.0000
      2 C2          -0.3749   2.1194  -3.5687 C.ar           1 <1>                0.0000
      3 C3          -0.3709   1.4187  -4.7615 C.ar           1 <1>                0.0000
      4 C4          -0.3513   0.0283  -4.7291 C.ar           1 <1>                0.0000
      5 N5          -0.3466  -0.6885  -5.9202 N.pl3          1 <1>                0.0000
      6 N6          -0.3368  -0.6188  -3.5738 N.ar           1 <1>                0.0000
      7 C7          -0.3402   0.0233  -2.4212 C.ar           1 <1>                0.0000
      8 C8          -0.3227  -0.7596  -1.1336 C.3            1 <1>                0.0000
      9 C9          -1.4903  -1.7483  -1.1220 C.3            1 <1>                0.0000
     10 C10         -1.2558  -2.8672  -2.1594 C.3            1 <1>                0.0000
     11 N11         -1.7865  -4.0947  -1.5124 N.4            1 <1>                0.0000
     12 H12         -2.7925  -4.1248  -1.5843 H              1 <1>                0.0000
     13 H13         -1.3782  -4.9180  -1.9291 H              1 <1>                0.0000
     14 C14         -1.3706  -3.9675  -0.0919 C.3            1 <1>                0.0000
     15 C15         -1.5658  -2.4721   0.2382 C.3            1 <1>                0.0000
     16 O16         -0.5239  -2.0145   1.1025 O.3            1 <1>                0.0000
     17 C17         -0.8336  -2.1215   2.4934 C.3            1 <1>                0.0000
     18 C18          0.3463  -1.6059   3.3198 C.3            1 <1>                0.0000
     19 N19          0.5276  -0.1695   3.0713 N.4            1 <1>                0.0000
     20 H20          0.7121  -0.0184   2.0909 H              1 <1>                0.0000
     21 H21         -0.3105   0.3260   3.3362 H              1 <1>                0.0000
     22 C22          1.6605   0.3255   3.8647 C.3            1 <1>                0.0000
     23 C23          1.8465   1.7991   3.6099 C.ar           1 <1>                0.0000
     24 C24          2.8205   2.2309   2.7293 C.ar           1 <1>                0.0000
     25 C25          2.9913   3.5824   2.4953 C.ar           1 <1>                0.0000
     26 C26          2.1883   4.5040   3.1417 C.ar           1 <1>                0.0000
     27 C27          1.2137   4.0746   4.0221 C.ar           1 <1>                0.0000
     28 C28          1.0381   2.7206   4.2533 C.ar           1 <1>                0.0000
     29 F29          0.0855   2.2996   5.1138 F              1 <1>                0.0000
     30 C30         -0.3539   1.4033  -2.3794 C.ar           1 <1>                0.0000
     31 H31          0.6272   4.0036  -3.5681 H              1 <1>                0.0000
     32 H32         -0.9225   3.9874  -4.4435 H              1 <1>                0.0000
     33 H33         -0.9056   3.9778  -2.6636 H              1 <1>                0.0000
     34 H34         -0.3830   1.9441  -5.7050 H              1 <1>                0.0000
     35 H35         -0.3570  -0.2189  -6.7688 H              1 <1>                0.0000
     36 H36         -0.3330  -1.6582  -5.9026 H              1 <1>                0.0000
     37 H37          0.6170  -1.3061  -1.0535 H              1 <1>                0.0000
     38 H38         -0.4178  -0.0750  -0.2908 H              1 <1>                0.0000
     39 H39         -2.4267  -1.2297  -1.3273 H              1 <1>                0.0000
     40 H40         -1.8029  -2.6548  -3.0779 H              1 <1>                0.0000
     41 H41         -0.1913  -2.9766  -2.3666 H              1 <1>                0.0000
     42 H42         -2.0042  -4.5835   0.5463 H              1 <1>                0.0000
     43 H43         -0.3241  -4.2491   0.0245 H              1 <1>                0.0000
     44 H44         -2.5400  -2.3103   0.6996 H              1 <1>                0.0000
     45 H45         -1.7198  -1.5268   2.7151 H              1 <1>                0.0000
     46 H46         -1.0243  -3.1650   2.7440 H              1 <1>                0.0000
     47 H47          0.1470  -1.7692   4.3789 H              1 <1>                0.0000
     48 H48          1.2517  -2.1413   3.0337 H              1 <1>                0.0000
     49 H49          1.4612   0.1623   4.9239 H              1 <1>                0.0000
     50 H50          2.5659  -0.2098   3.5787 H              1 <1>                0.0000
     51 H51          3.4485   1.5120   2.2242 H              1 <1>                0.0000
     52 H52          3.7528   3.9189   1.8074 H              1 <1>                0.0000
     53 H53          2.3231   5.5598   2.9586 H              1 <1>                0.0000
     54 H54          0.5867   4.7946   4.5270 H              1 <1>                0.0000
     55 H55         -0.3563   1.9203  -1.4312 H              1 <1>                0.0000
@<TRIPOS>BOND
    1    1    2 1     
    2    1   31 1     
    3    1   32 1     
    4    1   33 1     
    5    2   30 ar    
    6    2    3 ar    
    7    3    4 ar    
    8    3   34 1     
    9    4    5 1     
   10    4    6 ar    
   11    5   35 1     
   12    5   36 1     
   13    6    7 ar    
   14    7    8 1     
   15    7   30 ar    
   16    8    9 1     
   17    8   37 1     
   18    8   38 1     
   19    9   15 1     
   20    9   10 1     
   21    9   39 1     
   22   10   11 1     
   23   10   40 1     
   24   10   41 1     
   25   11   12 1     
   26   11   13 1     
   27   11   14 1     
   28   14   15 1     
   29   14   42 1     
   30   14   43 1     
   31   15   16 1     
   32   15   44 1     
   33   16   17 1     
   34   17   18 1     
   35   17   45 1     
   36   17   46 1     
   37   18   19 1     
   38   18   47 1     
   39   18   48 1     
   40   19   20 1     
   41   19   21 1     
   42   19   22 1     
   43   22   23 1     
   44   22   49 1     
   45   22   50 1     
   46   23   28 ar    
   47   23   24 ar    
   48   24   25 ar    
   49   24   51 1     
   50   25   26 ar    
   51   25   52 1     
   52   26   27 ar    
   53   26   53 1     
   54   27   28 ar    
   55   27   54 1     
   56   28   29 1     
   57   30   55 1     
@<TRIPOS>SUBSTRUCTURE
      1 ****           1
@<TRIPOS>SET
DONOR_HYDROGENS      STATIC     ATOMS    <user>   **** ""
6 35 36 12 13 20 21
ATOM$RED        STATIC     ATOMS    COLORGROUP SYSTEM
6 35 36 12 13 20 21
