#       Name:                AXY
#       Creating user name   gbret
#       Creation time:       Fri Sep  9 04:14:40 2016


#       File generated by GOLD software.
#

@<TRIPOS>MOLECULE
AXY
    51    54     1
SMALL
NO_CHARGES


@<TRIPOS>ATOM
      1 O1           2.5570  -4.5461   1.0991 O.co2          1 <1>                0.0000
      2 C2           2.7469  -3.3421   1.1257 C.2            1 <1>                0.0000
      3 O3           3.8815  -2.9021   1.0502 O.co2          1 <1>                0.0000
      4 C4           1.5788  -2.3975   1.2458 C.3            1 <1>                0.0000
      5 C5           0.8992  -2.5967   2.6020 C.3            1 <1>                0.0000
      6 C6          -0.3397  -1.7416   2.6734 C.ar           1 <1>                0.0000
      7 C7          -0.2574  -0.4485   3.1577 C.ar           1 <1>                0.0000
      8 C8          -1.3887   0.3390   3.2253 C.ar           1 <1>                0.0000
      9 C9          -2.6154  -0.1706   2.8047 C.ar           1 <1>                0.0000
     10 C10         -2.6926  -1.4739   2.3178 C.ar           1 <1>                0.0000
     11 C11         -1.5538  -2.2507   2.2493 C.ar           1 <1>                0.0000
     12 C12         -3.8354   0.6712   2.8756 C.ar           1 <1>                0.0000
     13 C13         -3.7573   1.9763   3.3575 C.ar           1 <1>                0.0000
     14 C14         -4.8950   2.7550   3.4208 C.ar           1 <1>                0.0000
     15 C15         -6.1112   2.2420   3.0072 C.ar           1 <1>                0.0000
     16 C16         -6.1946   0.9471   2.5284 C.ar           1 <1>                0.0000
     17 C17         -5.0621   0.1615   2.4549 C.ar           1 <1>                0.0000
     18 O18          2.0428  -1.0502   1.1388 O.3            1 <1>                0.0000
     19 C19          2.1929  -0.5471  -0.1144 C.ar           1 <1>                0.0000
     20 C20          2.5358   0.7868  -0.2889 C.ar           1 <1>                0.0000
     21 C21          2.6888   1.3003  -1.5596 C.ar           1 <1>                0.0000
     22 C22          2.4992   0.4785  -2.6693 C.ar           1 <1>                0.0000
     23 C23          2.1555  -0.8604  -2.4909 C.ar           1 <1>                0.0000
     24 C24          2.0086  -1.3694  -1.2177 C.ar           1 <1>                0.0000
     25 C25          2.6626   1.0280  -4.0377 C.ar           1 <1>                0.0000
     26 C26          3.0115   2.3651  -4.2173 C.ar           1 <1>                0.0000
     27 C27          3.1626   2.8708  -5.4925 C.ar           1 <1>                0.0000
     28 C28          2.9680   2.0532  -6.5912 C.ar           1 <1>                0.0000
     29 C29          2.6211   0.7253  -6.4187 C.ar           1 <1>                0.0000
     30 C30          2.4734   0.2074  -5.1480 C.ar           1 <1>                0.0000
     31 H31          0.8643  -2.6001   0.4480 H              1 <1>                0.0000
     32 H32          0.6244  -3.6449   2.7202 H              1 <1>                0.0000
     33 H33          1.5857  -2.3090   3.3982 H              1 <1>                0.0000
     34 H34          0.6939  -0.0546   3.4837 H              1 <1>                0.0000
     35 H35         -1.3234   1.3484   3.6039 H              1 <1>                0.0000
     36 H36         -3.6409  -1.8740   1.9908 H              1 <1>                0.0000
     37 H37         -1.6124  -3.2609   1.8717 H              1 <1>                0.0000
     38 H38         -2.8083   2.3775   3.6813 H              1 <1>                0.0000
     39 H39         -4.8357   3.7667   3.7942 H              1 <1>                0.0000
     40 H40         -6.9991   2.8548   3.0588 H              1 <1>                0.0000
     41 H41         -7.1467   0.5514   2.2071 H              1 <1>                0.0000
     42 H42         -5.1282  -0.8495   2.0809 H              1 <1>                0.0000
     43 H43          2.6826   1.4231   0.5713 H              1 <1>                0.0000
     44 H44          2.9549   2.3382  -1.6948 H              1 <1>                0.0000
     45 H45          2.0076  -1.4994  -3.3489 H              1 <1>                0.0000
     46 H46          1.7422  -2.4068  -1.0788 H              1 <1>                0.0000
     47 H47          3.1631   3.0045  -3.3603 H              1 <1>                0.0000
     48 H48          3.4330   3.9070  -5.6330 H              1 <1>                0.0000
     49 H49          3.0869   2.4532  -7.5873 H              1 <1>                0.0000
     50 H50          2.4696   0.0916  -7.2800 H              1 <1>                0.0000
     51 H51          2.2029  -0.8296  -5.0145 H              1 <1>                0.0000
@<TRIPOS>BOND
    1    1    2 ar    
    2    2    3 ar    
    3    2    4 1     
    4    4    5 1     
    5    4   18 1     
    6    4   31 1     
    7    5    6 1     
    8    5   32 1     
    9    5   33 1     
   10    6   11 ar    
   11    6    7 ar    
   12    7    8 ar    
   13    7   34 1     
   14    8    9 ar    
   15    8   35 1     
   16    9   10 ar    
   17    9   12 1     
   18   10   11 ar    
   19   10   36 1     
   20   11   37 1     
   21   12   17 ar    
   22   12   13 ar    
   23   13   14 ar    
   24   13   38 1     
   25   14   15 ar    
   26   14   39 1     
   27   15   16 ar    
   28   15   40 1     
   29   16   17 ar    
   30   16   41 1     
   31   17   42 1     
   32   18   19 1     
   33   19   24 ar    
   34   19   20 ar    
   35   20   21 ar    
   36   20   43 1     
   37   21   22 ar    
   38   21   44 1     
   39   22   23 ar    
   40   22   25 1     
   41   23   24 ar    
   42   23   45 1     
   43   24   46 1     
   44   25   30 ar    
   45   25   26 ar    
   46   26   27 ar    
   47   26   47 1     
   48   27   28 ar    
   49   27   48 1     
   50   28   29 ar    
   51   28   49 1     
   52   29   30 ar    
   53   29   50 1     
   54   30   51 1     
@<TRIPOS>SUBSTRUCTURE
      1 ****           1
