#       Name:                AZR
#       Creating user name   gbret
#       Creation time:       Fri Sep  9 04:17:36 2016


#       File generated by GOLD software.
#

@<TRIPOS>MOLECULE
AZR
    45    45     1
SMALL
NO_CHARGES


@<TRIPOS>ATOM
      1 C1           0.8377   1.2939  -3.2410 C.3            1 <1>                0.0000
      2 C2           1.1199  -0.2092  -3.2875 C.3            1 <1>                0.0000
      3 N3           2.0532  -0.4972  -4.3794 N.pl3          1 <1>                0.0000
      4 S4           1.4766  -0.9605  -5.8610 S.o2           1 <1>                0.0000
      5 O5           0.7316   0.1698  -6.3933 O.co2          1 <1>                0.0000
      6 O6           2.6348  -1.2850  -6.6791 O.co2          1 <1>                0.0000
      7 O7           0.6252  -2.1184  -5.6363 O.co2          1 <1>                0.0000
      8 C8           1.7359  -0.6537  -1.9594 C.3            1 <1>                0.0000
      9 N9           0.8027  -0.3657  -0.8675 N.am           1 <1>                0.0000
     10 C10          1.2660  -0.1865   0.3853 C.2            1 <1>                0.0000
     11 O11          2.4578  -0.2638   0.6092 O.2            1 <1>                0.0000
     12 C12          0.3219   0.1049   1.4898 C.2            1 <1>                0.0000
     13 N13         -0.9559   0.1877   1.2497 N.2            1 <1>                0.0000
     14 O14         -1.8704   0.3235   2.3222 O.3            1 <1>                0.0000
     15 C15         -3.2375   0.4028   1.9138 C.3            1 <1>                0.0000
     16 C16         -3.4278   1.6166   1.0019 C.3            1 <1>                0.0000
     17 C17         -3.6177  -0.8700   1.1547 C.3            1 <1>                0.0000
     18 C18         -4.1174   0.5447   3.1290 C.2            1 <1>                0.0000
     19 O19         -3.6199   0.5751   4.2417 O.co2          1 <1>                0.0000
     20 O20         -5.3268   0.6292   2.9995 O.co2          1 <1>                0.0000
     21 C21          0.8303   0.3015   2.8644 C.2            1 <1>                0.0000
     22 C22          0.0319   0.6776   3.8828 C.2            1 <1>                0.0000
     23 S23          1.0148   0.7983   5.3400 S.3            1 <1>                0.0000
     24 C24          2.4401   0.3210   4.4231 C.2            1 <1>                0.0000
     25 N25          3.7157   0.1826   4.9438 N.pl3          1 <1>                0.0000
     26 N26          2.1106   0.1140   3.1866 N.2            1 <1>                0.0000
     27 C27          2.0140  -2.1342  -2.0053 C.2            1 <1>                0.0000
     28 O28          1.4869  -2.8725  -1.2081 O.2            1 <1>                0.0000
     29 H29          1.7698   1.8336  -3.0741 H              1 <1>                0.0000
     30 H30          0.3988   1.6106  -4.1871 H              1 <1>                0.0000
     31 H31          0.1433   1.5082  -2.4286 H              1 <1>                0.0000
     32 H32          0.1878  -0.7489  -3.4544 H              1 <1>                0.0000
     33 H33          3.0089  -0.4165  -4.2345 H              1 <1>                0.0000
     34 H34          2.6681  -0.1140  -1.7925 H              1 <1>                0.0000
     35 H35         -0.1487  -0.3040  -1.0463 H              1 <1>                0.0000
     36 H36         -2.7914   1.5140   0.1230 H              1 <1>                0.0000
     37 H37         -4.4705   1.6771   0.6904 H              1 <1>                0.0000
     38 H38         -3.1569   2.5234   1.5427 H              1 <1>                0.0000
     39 H39         -3.4822  -1.7347   1.8044 H              1 <1>                0.0000
     40 H40         -4.6605  -0.8095   0.8432 H              1 <1>                0.0000
     41 H41         -2.9813  -0.9726   0.2758 H              1 <1>                0.0000
     42 H42         -1.0284   0.8722   3.8169 H              1 <1>                0.0000
     43 H43          3.8765   0.3537   5.8850 H              1 <1>                0.0000
     44 H44          4.4485  -0.0852   4.3675 H              1 <1>                0.0000
     45 H45          2.6846  -2.5348  -2.7510 H              1 <1>                0.0000
@<TRIPOS>BOND
    1    1    2 1     
    2    1   29 1     
    3    1   30 1     
    4    1   31 1     
    5    2    3 1     
    6    2    8 1     
    7    2   32 1     
    8    3    4 1     
    9    3   33 1     
   10    4    5 ar    
   11    4    6 ar    
   12    4    7 ar    
   13    8    9 1     
   14    8   27 1     
   15    8   34 1     
   16    9   10 am    
   17    9   35 1     
   18   10   11 2     
   19   10   12 1     
   20   12   13 2     
   21   12   21 1     
   22   13   14 1     
   23   14   15 1     
   24   15   16 1     
   25   15   17 1     
   26   15   18 1     
   27   16   36 1     
   28   16   37 1     
   29   16   38 1     
   30   17   39 1     
   31   17   40 1     
   32   17   41 1     
   33   18   19 ar    
   34   18   20 ar    
   35   21   26 1     
   36   21   22 2     
   37   22   23 1     
   38   22   42 1     
   39   23   24 1     
   40   24   25 1     
   41   24   26 2     
   42   25   43 1     
   43   25   44 1     
   44   27   28 2     
   45   27   45 1     
@<TRIPOS>SUBSTRUCTURE
      1 ****           1
@<TRIPOS>SET
DONOR_HYDROGENS      STATIC     ATOMS    <user>   **** ""
4 33 35 43 44
ATOM$RED        STATIC     ATOMS    COLORGROUP SYSTEM
4 33 35 43 44
