#       Name:                B2L
#       Creating user name   gbret
#       Creation time:       Fri Sep  9 04:20:36 2016


#       File generated by GOLD software.
#

@<TRIPOS>MOLECULE
B2L
    36    39     1
SMALL
NO_CHARGES


@<TRIPOS>ATOM
      1 C1          -1.9245   4.1335   2.6259 C.3            1 <1>                0.0000
      2 C2          -0.8952   3.0698   2.3429 C.ar           1 <1>                0.0000
      3 C3          -0.9314   2.3602   1.1560 C.ar           1 <1>                0.0000
      4 C4           0.0433   1.3821   0.9349 C.ar           1 <1>                0.0000
      5 N5           0.9677   1.1695   1.8704 N.ar           1 <1>                0.0000
      6 C6           0.9650   1.8718   2.9919 C.ar           1 <1>                0.0000
      7 N7           1.9395   1.6260   3.9437 N.pl3          1 <1>                0.0000
      8 N8           0.0565   2.8084   3.2251 N.ar           1 <1>                0.0000
      9 C9           0.0477   0.5951  -0.3189 C.ar           1 <1>                0.0000
     10 C10         -0.0655   1.2295  -1.5449 C.ar           1 <1>                0.0000
     11 C11         -0.0647   0.5009  -2.7299 C.ar           1 <1>                0.0000
     12 C12          0.0461  -0.8551  -2.7182 C.ar           1 <1>                0.0000
     13 C13          0.0419  -1.6453  -4.0023 C.3            1 <1>                0.0000
     14 O14          0.7788  -2.8566  -3.8139 O.3            1 <1>                0.0000
     15 C15          0.2751  -3.6990  -2.7733 C.3            1 <1>                0.0000
     16 C16          0.2825  -2.9389  -1.4721 C.ar           1 <1>                0.0000
     17 C17          0.4005  -3.5833  -0.2817 C.ar           1 <1>                0.0000
     18 C18          0.4039  -2.8706   0.9171 C.ar           1 <1>                0.0000
     19 C19          0.2896  -1.5127   0.9309 C.ar           1 <1>                0.0000
     20 C20          0.1734  -0.8142  -0.2793 C.ar           1 <1>                0.0000
     21 C21          0.1646  -1.5375  -1.4941 C.ar           1 <1>                0.0000
     22 H22         -1.5684   5.0928   2.2505 H              1 <1>                0.0000
     23 H23         -2.8604   3.8744   2.1307 H              1 <1>                0.0000
     24 H24         -2.0894   4.2027   3.7011 H              1 <1>                0.0000
     25 H25         -1.6947   2.5567   0.4177 H              1 <1>                0.0000
     26 H26          2.6127   0.9462   3.7841 H              1 <1>                0.0000
     27 H27          1.9491   2.1336   4.7702 H              1 <1>                0.0000
     28 H28         -0.1561   2.3051  -1.5813 H              1 <1>                0.0000
     29 H29         -0.1537   1.0192  -3.6732 H              1 <1>                0.0000
     30 H30         -0.9850  -1.8834  -4.2797 H              1 <1>                0.0000
     31 H31          0.5059  -1.0563  -4.7935 H              1 <1>                0.0000
     32 H32         -0.7443  -4.0024  -3.0118 H              1 <1>                0.0000
     33 H33          0.9068  -4.5826  -2.6823 H              1 <1>                0.0000
     34 H34          0.4923  -4.6592  -0.2637 H              1 <1>                0.0000
     35 H35          0.4983  -3.4045   1.8511 H              1 <1>                0.0000
     36 H36          0.2926  -0.9771   1.8688 H              1 <1>                0.0000
@<TRIPOS>BOND
    1    1    2 1     
    2    1   22 1     
    3    1   23 1     
    4    1   24 1     
    5    2    8 ar    
    6    2    3 ar    
    7    3    4 ar    
    8    3   25 1     
    9    4    5 ar    
   10    4    9 1     
   11    5    6 ar    
   12    6    7 1     
   13    6    8 ar    
   14    7   26 1     
   15    7   27 1     
   16    9   20 ar    
   17    9   10 ar    
   18   10   11 ar    
   19   10   28 1     
   20   11   12 ar    
   21   11   29 1     
   22   12   21 ar    
   23   12   13 1     
   24   13   14 1     
   25   13   30 1     
   26   13   31 1     
   27   14   15 1     
   28   15   16 1     
   29   15   32 1     
   30   15   33 1     
   31   16   21 ar    
   32   16   17 ar    
   33   17   18 ar    
   34   17   34 1     
   35   18   19 ar    
   36   18   35 1     
   37   19   20 ar    
   38   19   36 1     
   39   20   21 ar    
@<TRIPOS>SUBSTRUCTURE
      1 ****           1
@<TRIPOS>SET
DONOR_HYDROGENS      STATIC     ATOMS    <user>   **** ""
2 26 27
ATOM$RED        STATIC     ATOMS    COLORGROUP SYSTEM
2 26 27
