#       Name:                B3H
#       Creating user name   gbret
#       Creation time:       Fri Sep  9 04:22:16 2016


#       File generated by GOLD software.
#

@<TRIPOS>MOLECULE
B3H
    51    50     1
SMALL
NO_CHARGES


@<TRIPOS>ATOM
      1 C1           4.4556   8.2163  -0.6765 C.3            1 <1>                0.0000
      2 C2           4.4764   6.6864  -0.6849 C.3            1 <1>                0.0000
      3 C3           3.0410   6.1569  -0.6740 C.3            1 <1>                0.0000
      4 C4           3.0617   4.6270  -0.6824 C.3            1 <1>                0.0000
      5 C5           1.6264   4.0974  -0.6716 C.3            1 <1>                0.0000
      6 C6           1.6471   2.5676  -0.6800 C.3            1 <1>                0.0000
      7 C7           0.2117   2.0380  -0.6691 C.3            1 <1>                0.0000
      8 C8           0.2325   0.5082  -0.6775 C.3            1 <1>                0.0000
      9 C9          -1.1813  -0.0134  -0.6668 C.2            1 <1>                0.0000
     10 O10         -2.1102   0.7591  -0.6538 O.2            1 <1>                0.0000
     11 O11         -1.4087  -1.3363  -0.6718 O.3            1 <1>                0.0000
     12 C12         -2.7953  -1.7669  -0.6609 C.3            1 <1>                0.0000
     13 C13         -2.8547  -3.2958  -0.6685 C.3            1 <1>                0.0000
     14 C14         -2.0590  -3.8311  -1.8607 C.3            1 <1>                0.0000
     15 O15         -0.7281  -3.3127  -1.8164 O.3            1 <1>                0.0000
     16 O16         -2.2835  -3.8085   0.5641 O.3            1 <1>                0.0000
     17 C17         -2.7696  -4.9724   1.0230 C.2            1 <1>                0.0000
     18 O18         -3.6434  -5.5440   0.4150 O.2            1 <1>                0.0000
     19 C19         -2.2255  -5.5664   2.2967 C.3            1 <1>                0.0000
     20 C20         -2.9452  -6.8836   2.5933 C.3            1 <1>                0.0000
     21 C21         -2.3928  -7.4866   3.8864 C.3            1 <1>                0.0000
     22 H22          5.4782   8.5936  -0.6842 H              1 <1>                0.0000
     23 H23          3.9284   8.5773  -1.5595 H              1 <1>                0.0000
     24 H24          3.9454   8.5678   0.2203 H              1 <1>                0.0000
     25 H25          4.9866   6.3349  -1.5817 H              1 <1>                0.0000
     26 H26          5.0036   6.3254   0.1982 H              1 <1>                0.0000
     27 H27          2.5308   6.5084   0.2228 H              1 <1>                0.0000
     28 H28          2.5138   6.5179  -1.5571 H              1 <1>                0.0000
     29 H29          3.5719   4.2755  -1.5792 H              1 <1>                0.0000
     30 H30          3.5889   4.2659   0.2006 H              1 <1>                0.0000
     31 H31          1.1162   4.4490   0.2252 H              1 <1>                0.0000
     32 H32          1.0992   4.4585  -1.5546 H              1 <1>                0.0000
     33 H33          2.1573   2.2161  -1.5768 H              1 <1>                0.0000
     34 H34          2.1743   2.2065   0.2031 H              1 <1>                0.0000
     35 H35         -0.2985   2.3895   0.2277 H              1 <1>                0.0000
     36 H36         -0.3155   2.3991  -1.5522 H              1 <1>                0.0000
     37 H37          0.7427   0.1567  -1.5743 H              1 <1>                0.0000
     38 H38          0.7597   0.1471   0.2055 H              1 <1>                0.0000
     39 H39         -3.2862  -1.3887   0.2359 H              1 <1>                0.0000
     40 H40         -3.3031  -1.3792  -1.5440 H              1 <1>                0.0000
     41 H41         -3.8925  -3.6187  -0.7499 H              1 <1>                0.0000
     42 H42         -2.0266  -4.9197  -1.8165 H              1 <1>                0.0000
     43 H43         -2.5398  -3.5192  -2.7879 H              1 <1>                0.0000
     44 H44         -0.1654  -3.6112  -2.5440 H              1 <1>                0.0000
     45 H45         -1.1576  -5.7534   2.1832 H              1 <1>                0.0000
     46 H46         -2.3870  -4.8707   3.1200 H              1 <1>                0.0000
     47 H47         -4.0130  -6.6966   2.7068 H              1 <1>                0.0000
     48 H48         -2.7837  -7.5793   1.7700 H              1 <1>                0.0000
     49 H49         -2.9055  -8.4249   4.0978 H              1 <1>                0.0000
     50 H50         -1.3249  -7.6736   3.7729 H              1 <1>                0.0000
     51 H51         -2.5543  -6.7908   4.7098 H              1 <1>                0.0000
@<TRIPOS>BOND
    1    1    2 1     
    2    1   22 1     
    3    1   23 1     
    4    1   24 1     
    5    2    3 1     
    6    2   25 1     
    7    2   26 1     
    8    3    4 1     
    9    3   27 1     
   10    3   28 1     
   11    4    5 1     
   12    4   29 1     
   13    4   30 1     
   14    5    6 1     
   15    5   31 1     
   16    5   32 1     
   17    6    7 1     
   18    6   33 1     
   19    6   34 1     
   20    7    8 1     
   21    7   35 1     
   22    7   36 1     
   23    8    9 1     
   24    8   37 1     
   25    8   38 1     
   26    9   10 2     
   27    9   11 1     
   28   11   12 1     
   29   12   13 1     
   30   12   39 1     
   31   12   40 1     
   32   13   14 1     
   33   13   16 1     
   34   13   41 1     
   35   14   15 1     
   36   14   42 1     
   37   14   43 1     
   38   15   44 1     
   39   16   17 1     
   40   17   18 2     
   41   17   19 1     
   42   19   20 1     
   43   19   45 1     
   44   19   46 1     
   45   20   21 1     
   46   20   47 1     
   47   20   48 1     
   48   21   49 1     
   49   21   50 1     
   50   21   51 1     
@<TRIPOS>SUBSTRUCTURE
      1 ****           1
@<TRIPOS>SET
DONOR_HYDROGENS      STATIC     ATOMS    <user>   **** ""
1 44
ATOM$RED        STATIC     ATOMS    COLORGROUP SYSTEM
1 44
