#       Name:                B4F
#       Creating user name   gbret
#       Creation time:       Fri Sep  9 04:24:14 2016


#       File generated by GOLD software.
#

@<TRIPOS>MOLECULE
B4F
    77    82     1
SMALL
NO_CHARGES


@<TRIPOS>ATOM
      1 O1          -2.9100   8.9828   6.1860 O.3            1 <1>                0.0000
      2 C2          -2.8916   7.6264   6.1785 C.ar           1 <1>                0.0000
      3 C3          -2.8880   6.9417   4.9618 C.ar           1 <1>                0.0000
      4 C4          -2.8696   5.5792   4.9379 C.ar           1 <1>                0.0000
      5 C5          -2.8536   4.8615   6.1422 C.ar           1 <1>                0.0000
      6 C6          -2.8330   3.3976   6.1433 C.2            1 <1>                0.0000
      7 C7          -2.8171   2.7442   7.3937 C.2            1 <1>                0.0000
      8 C8          -2.7962   1.3361   7.4600 C.2            1 <1>                0.0000
      9 C9          -2.7809   0.7143   8.6643 C.2            1 <1>                0.0000
     10 C10         -2.7854   1.4723   9.8553 C.2            1 <1>                0.0000
     11 O11         -2.7711   0.9029  10.9396 O.2            1 <1>                0.0000
     12 C12         -2.8056   2.8716   9.8037 C.2            1 <1>                0.0000
     13 C13         -2.8218   3.5154   8.5826 C.2            1 <1>                0.0000
     14 O14         -2.8408   4.8633   8.5375 O.3            1 <1>                0.0000
     15 C15         -2.8568   5.5466   7.3756 C.ar           1 <1>                0.0000
     16 C16         -2.8708   6.9340   7.3783 C.ar           1 <1>                0.0000
     17 C17         -2.8295   2.6325   4.8812 C.ar           1 <1>                0.0000
     18 C18         -1.6209   2.2820   4.2793 C.ar           1 <1>                0.0000
     19 C19         -1.6165   1.5669   3.0996 C.ar           1 <1>                0.0000
     20 C20         -2.8201   1.1889   2.4998 C.ar           1 <1>                0.0000
     21 C21         -4.0356   1.5321   3.0907 C.ar           1 <1>                0.0000
     22 C22         -4.0484   2.2487   4.2834 C.ar           1 <1>                0.0000
     23 C23         -5.3311   2.6152   4.9142 C.2            1 <1>                0.0000
     24 O24         -6.3861   2.2892   4.3888 O.co2          1 <1>                0.0000
     25 O25         -5.3391   3.2450   5.9624 O.co2          1 <1>                0.0000
     26 C26         -2.8051   0.4229   1.2340 C.2            1 <1>                0.0000
     27 O27         -3.8514   0.0932   0.7108 O.2            1 <1>                0.0000
     28 N28         -1.6313   0.0906   0.6612 N.am           1 <1>                0.0000
     29 C29         -1.6165  -0.6678  -0.5921 C.3            1 <1>                0.0000
     30 C30         -0.1690  -0.9113  -1.0238 C.3            1 <1>                0.0000
     31 N31         -0.1542  -1.6698  -2.2771 N.am           1 <1>                0.0000
     32 C32          1.0196  -2.0020  -2.8499 C.2            1 <1>                0.0000
     33 O33          2.0637  -1.6730  -2.3279 O.2            1 <1>                0.0000
     34 C34          1.0348  -2.7822  -4.1391 C.3            1 <1>                0.0000
     35 C35          2.4823  -3.0257  -4.5709 C.3            1 <1>                0.0000
     36 C36          2.4977  -3.8178  -5.8798 C.3            1 <1>                0.0000
     37 C37          3.9452  -4.0613  -6.3115 C.3            1 <1>                0.0000
     38 C38          3.9607  -4.8534  -7.6204 C.3            1 <1>                0.0000
     39 S39          3.4102  -3.8019  -9.0254 S.3            1 <1>                0.0000
     40 C40          4.3543  -4.7371 -10.2968 C.3            1 <1>                0.0000
     41 C41          5.6260  -5.1574  -9.5341 C.3            1 <1>                0.0000
     42 N42          6.6547  -4.1183  -9.6981 N.am           1 <1>                0.0000
     43 C43          6.9917  -3.6424  -8.4917 C.2            1 <1>                0.0000
     44 O44          7.8235  -2.7701  -8.3314 O.2            1 <1>                0.0000
     45 N45          6.3282  -4.2148  -7.4780 N.am           1 <1>                0.0000
     46 C46          5.4031  -5.2232  -8.0183 C.3            1 <1>                0.0000
     47 H47         -2.0321   9.3880   6.1798 H              1 <1>                0.0000
     48 H48         -2.9003   7.4949   4.0344 H              1 <1>                0.0000
     49 H49         -2.8676   5.0539   3.9942 H              1 <1>                0.0000
     50 H50         -2.7927   0.7528   6.5511 H              1 <1>                0.0000
     51 H51         -2.7657  -0.3645   8.7129 H              1 <1>                0.0000
     52 H52         -2.8093   3.4463  10.7181 H              1 <1>                0.0000
     53 H53         -2.8689   7.4731   8.3141 H              1 <1>                0.0000
     54 H54         -0.6867   2.5714   4.7375 H              1 <1>                0.0000
     55 H55         -0.6780   1.2983   2.6374 H              1 <1>                0.0000
     56 H56         -4.9652   1.2391   2.6255 H              1 <1>                0.0000
     57 H57         -0.7962   0.3537   1.0787 H              1 <1>                0.0000
     58 H58         -2.1172  -1.6246  -0.4437 H              1 <1>                0.0000
     59 H59         -2.1360  -0.1020  -1.3654 H              1 <1>                0.0000
     60 H60          0.3317   0.0455  -1.1723 H              1 <1>                0.0000
     61 H61          0.3505  -1.4772  -0.2505 H              1 <1>                0.0000
     62 H62         -0.9893  -1.9329  -2.6947 H              1 <1>                0.0000
     63 H63          0.5341  -3.7390  -3.9907 H              1 <1>                0.0000
     64 H64          0.5153  -2.2164  -4.9124 H              1 <1>                0.0000
     65 H65          2.9830  -2.0689  -4.7193 H              1 <1>                0.0000
     66 H66          3.0018  -3.5915  -3.7976 H              1 <1>                0.0000
     67 H67          1.9971  -4.7746  -5.7314 H              1 <1>                0.0000
     68 H68          1.9782  -3.2520  -6.6531 H              1 <1>                0.0000
     69 H69          4.4459  -3.1045  -6.4600 H              1 <1>                0.0000
     70 H70          4.4648  -4.6271  -5.5383 H              1 <1>                0.0000
     71 H71          3.3417  -5.7467  -7.5370 H              1 <1>                0.0000
     72 H72          3.7949  -5.6124 -10.6273 H              1 <1>                0.0000
     73 H73          4.6046  -4.0956 -11.1417 H              1 <1>                0.0000
     74 H74          5.9885  -6.1163  -9.9045 H              1 <1>                0.0000
     75 H75          7.0290  -3.8251 -10.5436 H              1 <1>                0.0000
     76 H76          6.4397  -3.9989  -6.5389 H              1 <1>                0.0000
     77 H77          5.6579  -6.2120  -7.6369 H              1 <1>                0.0000
@<TRIPOS>BOND
    1    1    2 1     
    2    1   47 1     
    3    2   16 ar    
    4    2    3 ar    
    5    3    4 ar    
    6    3   48 1     
    7    4    5 ar    
    8    4   49 1     
    9    5   15 ar    
   10    5    6 1     
   11    6    7 2     
   12    6   17 1     
   13    7   13 1     
   14    7    8 1     
   15    8    9 2     
   16    8   50 1     
   17    9   10 1     
   18    9   51 1     
   19   10   11 2     
   20   10   12 1     
   21   12   13 2     
   22   12   52 1     
   23   13   14 1     
   24   14   15 1     
   25   15   16 ar    
   26   16   53 1     
   27   17   22 ar    
   28   17   18 ar    
   29   18   19 ar    
   30   18   54 1     
   31   19   20 ar    
   32   19   55 1     
   33   20   21 ar    
   34   20   26 1     
   35   21   22 ar    
   36   21   56 1     
   37   22   23 1     
   38   23   24 ar    
   39   23   25 ar    
   40   26   27 2     
   41   26   28 am    
   42   28   29 1     
   43   28   57 1     
   44   29   30 1     
   45   29   58 1     
   46   29   59 1     
   47   30   31 1     
   48   30   60 1     
   49   30   61 1     
   50   31   32 am    
   51   31   62 1     
   52   32   33 2     
   53   32   34 1     
   54   34   35 1     
   55   34   63 1     
   56   34   64 1     
   57   35   36 1     
   58   35   65 1     
   59   35   66 1     
   60   36   37 1     
   61   36   67 1     
   62   36   68 1     
   63   37   38 1     
   64   37   69 1     
   65   37   70 1     
   66   38   46 1     
   67   38   39 1     
   68   38   71 1     
   69   39   40 1     
   70   40   41 1     
   71   40   72 1     
   72   40   73 1     
   73   41   46 1     
   74   41   42 1     
   75   41   74 1     
   76   42   43 am    
   77   42   75 1     
   78   43   44 2     
   79   43   45 am    
   80   45   46 1     
   81   45   76 1     
   82   46   77 1     
@<TRIPOS>SUBSTRUCTURE
      1 ****           1
@<TRIPOS>SET
DONOR_HYDROGENS      STATIC     ATOMS    <user>   **** ""
5 47 57 62 75 76
ATOM$RED        STATIC     ATOMS    COLORGROUP SYSTEM
5 47 57 62 75 76
