#       Name:                B82
#       Creating user name   gbret
#       Creation time:       Fri Sep  9 04:27:57 2016


#       File generated by GOLD software.
#

@<TRIPOS>MOLECULE
B82
    45    46     1
SMALL
NO_CHARGES


@<TRIPOS>ATOM
      1 C1           4.8798  -0.1169  -1.7949 C.3            1 <1>                0.0000
      2 C2           4.7989  -1.4824  -1.1094 C.3            1 <1>                0.0000
      3 N3           3.4042  -1.9295  -1.0747 N.pl3          1 <1>                0.0000
      4 C4           2.6858  -2.1857  -2.3254 C.3            1 <1>                0.0000
      5 C5           2.9775  -3.6112  -2.7984 C.3            1 <1>                0.0000
      6 S6           2.6398  -2.1454   0.3784 S.o2           1 <1>                0.0000
      7 O7           1.6891  -3.1830   0.1815 O.2            1 <1>                0.0000
      8 O8           3.6614  -2.2041   1.3644 O.2            1 <1>                0.0000
      9 C9           1.7169  -0.6804   0.7049 C.ar           1 <1>                0.0000
     10 C10          0.3384  -0.7143   0.6745 C.ar           1 <1>                0.0000
     11 C11         -0.3914   0.4473   0.9339 C.ar           1 <1>                0.0000
     12 C12          0.2802   1.6371   1.2227 C.ar           1 <1>                0.0000
     13 C13          1.6586   1.6581   1.2502 C.ar           1 <1>                0.0000
     14 C14          2.3769   0.5012   0.9971 C.ar           1 <1>                0.0000
     15 Br15         4.2671   0.5388   1.0373 Br             1 <1>                0.0000
     16 C16         -1.8683   0.4179   0.9024 C.2            1 <1>                0.0000
     17 O17         -2.4504  -0.6190   0.6503 O.2            1 <1>                0.0000
     18 N18         -2.5701   1.5409   1.1532 N.am           1 <1>                0.0000
     19 C19         -3.9574   1.4899   1.2363 C.ar           1 <1>                0.0000
     20 C20         -4.5854   0.3592   1.7424 C.ar           1 <1>                0.0000
     21 C21         -5.9621   0.3108   1.8239 C.ar           1 <1>                0.0000
     22 C22         -6.7290   1.3862   1.4030 C.ar           1 <1>                0.0000
     23 C23         -6.1253   2.5163   0.8981 C.ar           1 <1>                0.0000
     24 C24         -4.7307   2.5838   0.8142 C.ar           1 <1>                0.0000
     25 C25         -4.0786   3.7881   0.2764 C.2            1 <1>                0.0000
     26 O26         -4.7458   4.7792   0.0131 O.co2          1 <1>                0.0000
     27 O27         -2.8690   3.7984   0.0926 O.co2          1 <1>                0.0000
     28 H28          5.8942   0.2727  -1.7100 H              1 <1>                0.0000
     29 H29          4.6181  -0.2229  -2.8477 H              1 <1>                0.0000
     30 H30          4.1846   0.5721  -1.3153 H              1 <1>                0.0000
     31 H31          5.3980  -2.2039  -1.6648 H              1 <1>                0.0000
     32 H32          5.1797  -1.4010  -0.0913 H              1 <1>                0.0000
     33 H33          1.6147  -2.0700  -2.1595 H              1 <1>                0.0000
     34 H34          3.0144  -1.4765  -3.0851 H              1 <1>                0.0000
     35 H35          4.0486  -3.7269  -2.9643 H              1 <1>                0.0000
     36 H36          2.6489  -4.3205  -2.0388 H              1 <1>                0.0000
     37 H37          2.4430  -3.8019  -3.7290 H              1 <1>                0.0000
     38 H38         -0.1754  -1.6374   0.4501 H              1 <1>                0.0000
     39 H39         -0.2789   2.5389   1.4239 H              1 <1>                0.0000
     40 H40          2.1792   2.5777   1.4731 H              1 <1>                0.0000
     41 H41         -2.1076   2.3846   1.2758 H              1 <1>                0.0000
     42 H42         -3.9957  -0.4833   2.0723 H              1 <1>                0.0000
     43 H43         -6.4454  -0.5710   2.2180 H              1 <1>                0.0000
     44 H44         -7.8057   1.3373   1.4710 H              1 <1>                0.0000
     45 H45         -6.7276   3.3511   0.5714 H              1 <1>                0.0000
@<TRIPOS>BOND
    1    1    2 1     
    2    1   28 1     
    3    1   29 1     
    4    1   30 1     
    5    2    3 1     
    6    2   31 1     
    7    2   32 1     
    8    3    4 1     
    9    3    6 1     
   10    4    5 1     
   11    4   33 1     
   12    4   34 1     
   13    5   35 1     
   14    5   36 1     
   15    5   37 1     
   16    6    7 2     
   17    6    8 2     
   18    6    9 1     
   19    9   14 ar    
   20    9   10 ar    
   21   10   11 ar    
   22   10   38 1     
   23   11   12 ar    
   24   11   16 1     
   25   12   13 ar    
   26   12   39 1     
   27   13   14 ar    
   28   13   40 1     
   29   14   15 1     
   30   16   17 2     
   31   16   18 am    
   32   18   19 1     
   33   18   41 1     
   34   19   24 ar    
   35   19   20 ar    
   36   20   21 ar    
   37   20   42 1     
   38   21   22 ar    
   39   21   43 1     
   40   22   23 ar    
   41   22   44 1     
   42   23   24 ar    
   43   23   45 1     
   44   24   25 1     
   45   25   26 ar    
   46   25   27 ar    
@<TRIPOS>SUBSTRUCTURE
      1 ****           1
@<TRIPOS>SET
DONOR_HYDROGENS      STATIC     ATOMS    <user>   **** ""
1 41
ATOM$RED        STATIC     ATOMS    COLORGROUP SYSTEM
1 41
