#       Name:                BBE
#       Creating user name   gbret
#       Creation time:       Fri Sep  9 04:32:28 2016


#       File generated by GOLD software.
#

@<TRIPOS>MOLECULE
BBE
    48    50     1
SMALL
NO_CHARGES


@<TRIPOS>ATOM
      1 C1          -1.6535   0.9782  -2.6004 C.3            1 <1>                0.0000
      2 N2          -0.2705   0.7795  -2.1601 N.pl3          1 <1>                0.0000
      3 C3           0.0073  -0.0684  -1.0628 C.2            1 <1>                0.0000
      4 C4          -0.8220  -0.0900   0.0255 C.2            1 <1>                0.0000
      5 N5          -1.9378   0.7145   0.0647 N.pl3          1 <1>                0.0000
      6 N6          -0.5296  -0.9245   1.0803 N.am           1 <1>                0.0000
      7 C7          -1.4109  -0.9560   2.2501 C.3            1 <1>                0.0000
      8 C8          -2.4789  -1.9995   2.0465 C.ar           1 <1>                0.0000
      9 C9          -3.6723  -1.6576   1.4384 C.ar           1 <1>                0.0000
     10 C10         -4.6520  -2.6148   1.2516 C.ar           1 <1>                0.0000
     11 C11         -4.4381  -3.9140   1.6725 C.ar           1 <1>                0.0000
     12 C12         -3.2443  -4.2562   2.2798 C.ar           1 <1>                0.0000
     13 C13         -2.2630  -3.2999   2.4627 C.ar           1 <1>                0.0000
     14 C14          0.5610  -1.7120   1.0429 C.2            1 <1>                0.0000
     15 O15          0.8035  -2.4433   1.9838 O.2            1 <1>                0.0000
     16 N16          1.3869  -1.7033  -0.0189 N.am           1 <1>                0.0000
     17 H17          2.1676  -2.2790  -0.0251 H              1 <1>                0.0000
     18 C18          1.1369  -0.9062  -1.0763 C.2            1 <1>                0.0000
     19 O19          1.8908  -0.9043  -2.0351 O.2            1 <1>                0.0000
     20 S20          0.9676   1.5477  -2.9472 S.o2           1 <1>                0.0000
     21 O21          1.7338   0.5310  -3.5784 O.2            1 <1>                0.0000
     22 O22          0.3818   2.6318  -3.6548 O.2            1 <1>                0.0000
     23 C23          2.0060   2.2608  -1.7152 C.ar           1 <1>                0.0000
     24 C24          1.7622   3.5449  -1.2644 C.ar           1 <1>                0.0000
     25 C25          2.5767   4.1043  -0.2980 C.ar           1 <1>                0.0000
     26 C26          3.6350   3.3796   0.2183 C.ar           1 <1>                0.0000
     27 C27          3.8781   2.0956  -0.2317 C.ar           1 <1>                0.0000
     28 C28          5.0319   1.3059   0.3306 C.3            1 <1>                0.0000
     29 C29          3.0607   1.5345  -1.1953 C.ar           1 <1>                0.0000
     30 H30         -1.9942   1.9670  -2.2932 H              1 <1>                0.0000
     31 H31         -1.7042   0.8977  -3.6863 H              1 <1>                0.0000
     32 H32         -2.2912   0.2179  -2.1495 H              1 <1>                0.0000
     33 H33         -2.1396   1.3006  -0.6814 H              1 <1>                0.0000
     34 H34         -2.5226   0.6953   0.8384 H              1 <1>                0.0000
     35 H35         -0.8278  -1.2013   3.1378 H              1 <1>                0.0000
     36 H36         -1.8772   0.0206   2.3801 H              1 <1>                0.0000
     37 H37         -3.8394  -0.6426   1.1095 H              1 <1>                0.0000
     38 H38         -5.5846  -2.3475   0.7772 H              1 <1>                0.0000
     39 H39         -5.2038  -4.6617   1.5272 H              1 <1>                0.0000
     40 H40         -3.0774  -5.2711   2.6089 H              1 <1>                0.0000
     41 H41         -1.3303  -3.5672   2.9372 H              1 <1>                0.0000
     42 H42          0.9356   4.1110  -1.6676 H              1 <1>                0.0000
     43 H43          2.3868   5.1076   0.0536 H              1 <1>                0.0000
     44 H44          4.2719   3.8170   0.9729 H              1 <1>                0.0000
     45 H45          4.6962   0.7418   1.2008 H              1 <1>                0.0000
     46 H46          5.4043   0.6169  -0.4275 H              1 <1>                0.0000
     47 H47          5.8296   1.9878   0.6252 H              1 <1>                0.0000
     48 H48          3.2507   0.5311  -1.5470 H              1 <1>                0.0000
@<TRIPOS>BOND
    1    1    2 1     
    2    1   30 1     
    3    1   31 1     
    4    1   32 1     
    5    2    3 1     
    6    2   20 1     
    7    3   18 1     
    8    3    4 2     
    9    4    5 1     
   10    4    6 1     
   11    5   33 1     
   12    5   34 1     
   13    6    7 1     
   14    6   14 1     
   15    7    8 1     
   16    7   35 1     
   17    7   36 1     
   18    8   13 ar    
   19    8    9 ar    
   20    9   10 ar    
   21    9   37 1     
   22   10   11 ar    
   23   10   38 1     
   24   11   12 ar    
   25   11   39 1     
   26   12   13 ar    
   27   12   40 1     
   28   13   41 1     
   29   14   15 2     
   30   14   16 1     
   31   16   17 1     
   32   16   18 1     
   33   18   19 2     
   34   20   21 2     
   35   20   22 2     
   36   20   23 1     
   37   23   29 ar    
   38   23   24 ar    
   39   24   25 ar    
   40   24   42 1     
   41   25   26 ar    
   42   25   43 1     
   43   26   27 ar    
   44   26   44 1     
   45   27   28 1     
   46   27   29 ar    
   47   28   45 1     
   48   28   46 1     
   49   28   47 1     
   50   29   48 1     
@<TRIPOS>SUBSTRUCTURE
      1 ****           1
@<TRIPOS>SET
DONOR_HYDROGENS      STATIC     ATOMS    <user>   **** ""
3 33 34 17
ATOM$RED        STATIC     ATOMS    COLORGROUP SYSTEM
3 33 34 17
