#       Name:                BCC
#       Creating user name   gbret
#       Creation time:       Fri Sep  9 04:34:03 2016


#       File generated by GOLD software.
#

@<TRIPOS>MOLECULE
BCC
    41    43     1
SMALL
NO_CHARGES


@<TRIPOS>ATOM
      1 N1           0.0538  -0.2596  -2.2119 N.4            1 <1>                0.0000
      2 H2           0.0675  -1.2685  -2.2175 H              1 <1>                0.0000
      3 H3           1.0004   0.0897  -2.2191 H              1 <1>                0.0000
      4 H4          -0.4342   0.0747  -3.0294 H              1 <1>                0.0000
      5 C5          -0.6338   0.2142  -1.0033 C.3            1 <1>                0.0000
      6 C6          -0.6046   1.7438  -0.9905 C.3            1 <1>                0.0000
      7 C7           0.8203   2.2200  -1.1092 C.ar           1 <1>                0.0000
      8 C8           1.5790   2.4210   0.0287 C.ar           1 <1>                0.0000
      9 C9           2.8860   2.8579  -0.0802 C.ar           1 <1>                0.0000
     10 C10          3.4344   3.0932  -1.3271 C.ar           1 <1>                0.0000
     11 C11          2.6760   2.8913  -2.4651 C.ar           1 <1>                0.0000
     12 C12          1.3704   2.4504  -2.3563 C.ar           1 <1>                0.0000
     13 C13         -2.0813  -0.2430  -1.0550 C.3            1 <1>                0.0000
     14 C14         -2.2645  -1.6356  -0.4536 C.3            1 <1>                0.0000
     15 C15         -1.8611  -1.5821   1.0225 C.3            1 <1>                0.0000
     16 C16         -1.8421  -3.0072   1.6210 C.3            1 <1>                0.0000
     17 C17         -0.8132  -2.8363   2.7727 C.3            1 <1>                0.0000
     18 C18          0.2109  -1.8422   2.1817 C.3            1 <1>                0.0000
     19 N19         -0.4475  -1.1497   1.0689 N.am           1 <1>                0.0000
     20 C20          0.1034  -0.2908   0.1983 C.2            1 <1>                0.0000
     21 O21          1.2387   0.0899   0.3909 O.2            1 <1>                0.0000
     22 C22          0.6233  -0.8451   3.2338 C.2            1 <1>                0.0000
     23 O23          1.3344  -1.1954   4.1602 O.co2          1 <1>                0.0000
     24 O24          0.2460   0.3118   3.1585 O.co2          1 <1>                0.0000
     25 H25         -1.1863   2.1254  -1.8296 H              1 <1>                0.0000
     26 H26         -1.0326   2.1076  -0.0564 H              1 <1>                0.0000
     27 H27          1.1505   2.2372   1.0028 H              1 <1>                0.0000
     28 H28          3.4785   3.0156   0.8088 H              1 <1>                0.0000
     29 H29          4.4553   3.4352  -1.4122 H              1 <1>                0.0000
     30 H30          3.1044   3.0755  -3.4392 H              1 <1>                0.0000
     31 H31          0.7779   2.2927  -3.2454 H              1 <1>                0.0000
     32 H32         -2.6968   0.4659  -0.5011 H              1 <1>                0.0000
     33 H33         -2.4108  -0.2595  -2.0939 H              1 <1>                0.0000
     34 H34         -3.3085  -1.9374  -0.5380 H              1 <1>                0.0000
     35 H35         -1.6319  -2.3494  -0.9813 H              1 <1>                0.0000
     36 H36         -2.5046  -0.9070   1.5865 H              1 <1>                0.0000
     37 H37         -2.8228  -3.2826   2.0090 H              1 <1>                0.0000
     38 H38         -1.4936  -3.7354   0.8887 H              1 <1>                0.0000
     39 H39         -1.2916  -2.4161   3.6574 H              1 <1>                0.0000
     40 H40         -0.3356  -3.7877   3.0068 H              1 <1>                0.0000
     41 H41          1.0845  -2.3826   1.8172 H              1 <1>                0.0000
@<TRIPOS>BOND
    1    1    2 1     
    2    1    3 1     
    3    1    4 1     
    4    1    5 1     
    5    5   20 1     
    6    5    6 1     
    7    5   13 1     
    8    6    7 1     
    9    6   25 1     
   10    6   26 1     
   11    7   12 ar    
   12    7    8 ar    
   13    8    9 ar    
   14    8   27 1     
   15    9   10 ar    
   16    9   28 1     
   17   10   11 ar    
   18   10   29 1     
   19   11   12 ar    
   20   11   30 1     
   21   12   31 1     
   22   13   14 1     
   23   13   32 1     
   24   13   33 1     
   25   14   15 1     
   26   14   34 1     
   27   14   35 1     
   28   15   19 1     
   29   15   16 1     
   30   15   36 1     
   31   16   17 1     
   32   16   37 1     
   33   16   38 1     
   34   17   18 1     
   35   17   39 1     
   36   17   40 1     
   37   18   19 1     
   38   18   22 1     
   39   18   41 1     
   40   19   20 am    
   41   20   21 2     
   42   22   23 ar    
   43   22   24 ar    
@<TRIPOS>SUBSTRUCTURE
      1 ****           1
@<TRIPOS>SET
DONOR_HYDROGENS      STATIC     ATOMS    <user>   **** ""
3 2 3 4
ATOM$RED        STATIC     ATOMS    COLORGROUP SYSTEM
3 2 3 4
