#       Name:                BE9
#       Creating user name   gbret
#       Creation time:       Fri Sep  9 04:38:48 2016


#       File generated by GOLD software.
#

@<TRIPOS>MOLECULE
BE9
    34    35     1
SMALL
NO_CHARGES


@<TRIPOS>ATOM
      1 N1           0.7419   3.3141   1.8052 N.pl3          1 <1>                0.0000
      2 S2           0.7994   1.6591   1.8053 S.o2           1 <1>                0.0000
      3 O3           2.1644   1.3049   1.6308 O.2            1 <1>                0.0000
      4 O4           0.0209   1.2306   2.9141 O.2            1 <1>                0.0000
      5 N5           0.0047   1.1410   0.4479 N.2            1 <1>                0.0000
      6 C6          -0.0182  -0.1256   0.1511 C.2            1 <1>                0.0000
      7 O7          -0.5688  -0.5370  -1.0122 O.3            1 <1>                0.0000
      8 C8          -0.9870   0.4118  -1.8910 C.ar           1 <1>                0.0000
      9 C9          -0.0612   1.1082  -2.6543 C.ar           1 <1>                0.0000
     10 C10         -0.4888   2.0717  -3.5471 C.ar           1 <1>                0.0000
     11 C11         -1.8382   2.3423  -3.6804 C.ar           1 <1>                0.0000
     12 C12         -2.7628   1.6499  -2.9205 C.ar           1 <1>                0.0000
     13 C13         -2.3407   0.6814  -2.0304 C.ar           1 <1>                0.0000
     14 N14          0.5174  -1.0445   1.0203 N.pl3          1 <1>                0.0000
     15 C15          1.9042  -1.5124   0.8683 C.3            1 <1>                0.0000
     16 C16          1.9031  -3.0451   0.8952 C.3            1 <1>                0.0000
     17 O17          1.2054  -3.4949   2.0591 O.3            1 <1>                0.0000
     18 C18         -0.1733  -3.1187   2.0968 C.3            1 <1>                0.0000
     19 C19         -0.2768  -1.5855   2.1348 C.3            1 <1>                0.0000
     20 H20          1.5646   3.8279   1.7922 H              1 <1>                0.0000
     21 H21         -0.1144   3.7696   1.8143 H              1 <1>                0.0000
     22 H22          0.9929   0.8975  -2.5503 H              1 <1>                0.0000
     23 H23          0.2315   2.6143  -4.1413 H              1 <1>                0.0000
     24 H24         -2.1705   3.0959  -4.3790 H              1 <1>                0.0000
     25 H25         -3.8162   1.8636  -3.0259 H              1 <1>                0.0000
     26 H26         -3.0634   0.1407  -1.4373 H              1 <1>                0.0000
     27 H27          2.3077  -1.1622  -0.0819 H              1 <1>                0.0000
     28 H28          2.5123  -1.1313   1.6887 H              1 <1>                0.0000
     29 H29          1.4052  -3.4246   0.0029 H              1 <1>                0.0000
     30 H30          2.9300  -3.4095   0.9228 H              1 <1>                0.0000
     31 H31         -0.6788  -3.4985   1.2089 H              1 <1>                0.0000
     32 H32         -0.6403  -3.5361   2.9890 H              1 <1>                0.0000
     33 H33          0.1115  -1.2148   3.0834 H              1 <1>                0.0000
     34 H34         -1.3183  -1.2849   2.0212 H              1 <1>                0.0000
@<TRIPOS>BOND
    1    1    2 1     
    2    1   20 1     
    3    1   21 1     
    4    2    3 2     
    5    2    4 2     
    6    2    5 1     
    7    5    6 2     
    8    6    7 1     
    9    6   14 1     
   10    7    8 1     
   11    8   13 ar    
   12    8    9 ar    
   13    9   10 ar    
   14    9   22 1     
   15   10   11 ar    
   16   10   23 1     
   17   11   12 ar    
   18   11   24 1     
   19   12   13 ar    
   20   12   25 1     
   21   13   26 1     
   22   14   19 1     
   23   14   15 1     
   24   15   16 1     
   25   15   27 1     
   26   15   28 1     
   27   16   17 1     
   28   16   29 1     
   29   16   30 1     
   30   17   18 1     
   31   18   19 1     
   32   18   31 1     
   33   18   32 1     
   34   19   33 1     
   35   19   34 1     
@<TRIPOS>SUBSTRUCTURE
      1 ****           1
@<TRIPOS>SET
DONOR_HYDROGENS      STATIC     ATOMS    <user>   **** ""
2 20 21
ATOM$RED        STATIC     ATOMS    COLORGROUP SYSTEM
2 20 21
