#       Name:                BEA
#       Creating user name   gbret
#       Creation time:       Fri Sep  9 04:38:52 2016


#       File generated by GOLD software.
#

@<TRIPOS>MOLECULE
BEA
    20    22     1
SMALL
NO_CHARGES


@<TRIPOS>ATOM
      1 C1          -0.0312   1.9158  -0.9554 C.3            1 <1>                0.0000
      2 C2          -0.0107   0.4089  -0.9637 C.ar           1 <1>                0.0000
      3 C3          -0.0072  -0.2671  -2.1624 C.ar           1 <1>                0.0000
      4 C4           0.0110  -1.6512  -2.1837 C.ar           1 <1>                0.0000
      5 C5           0.0262  -2.3547  -0.9992 C.ar           1 <1>                0.0000
      6 C6           0.0228  -1.6770   0.2213 C.ar           1 <1>                0.0000
      7 S7           0.0396  -2.3001   1.8670 S.3            1 <1>                0.0000
      8 C8           0.0213  -0.6722   2.5302 C.2            1 <1>                0.0000
      9 N9           0.0188  -0.0112   3.6756 N.2            1 <1>                0.0000
     10 N10          0.0009   1.2512   3.4434 N.2            1 <1>                0.0000
     11 C11         -0.0088   1.4691   2.1601 C.2            1 <1>                0.0000
     12 N12          0.0041   0.2375   1.5364 N.pl3          1 <1>                0.0000
     13 C13          0.0103  -0.2926   0.2493 C.ar           1 <1>                0.0000
     14 H14          0.9914   2.2931  -0.9631 H              1 <1>                0.0000
     15 H15         -0.5583   2.2769  -1.8385 H              1 <1>                0.0000
     16 H16         -0.5413   2.2673  -0.0586 H              1 <1>                0.0000
     17 H17         -0.0191   0.2847  -3.0907 H              1 <1>                0.0000
     18 H18          0.0130  -2.1781  -3.1265 H              1 <1>                0.0000
     19 H19          0.0404  -3.4345  -1.0150 H              1 <1>                0.0000
     20 H20         -0.0241   2.4334   1.6740 H              1 <1>                0.0000
@<TRIPOS>BOND
    1    1    2 1     
    2    1   14 1     
    3    1   15 1     
    4    1   16 1     
    5    2   13 ar    
    6    2    3 ar    
    7    3    4 ar    
    8    3   17 1     
    9    4    5 ar    
   10    4   18 1     
   11    5    6 ar    
   12    5   19 1     
   13    6   13 ar    
   14    6    7 1     
   15    7    8 1     
   16    8   12 1     
   17    8    9 2     
   18    9   10 1     
   19   10   11 2     
   20   11   12 1     
   21   11   20 1     
   22   12   13 1     
@<TRIPOS>SUBSTRUCTURE
      1 ****           1
