#       Name:                BEK
#       Creating user name   gbret
#       Creation time:       Fri Sep  9 04:39:40 2016


#       File generated by GOLD software.
#

@<TRIPOS>MOLECULE
BEK
    20    20     1
SMALL
NO_CHARGES


@<TRIPOS>ATOM
      1 C1          -1.2804   2.5343   2.2218 C.3            1 <1>                0.0000
      2 O2          -1.2610   1.1054   2.2139 O.3            1 <1>                0.0000
      3 C3          -0.6577   0.5028   1.1568 C.ar           1 <1>                0.0000
      4 C4          -1.3984   0.1896   0.0227 C.ar           1 <1>                0.0000
      5 F5          -2.7158   0.4853  -0.0251 F              1 <1>                0.0000
      6 C6          -0.7898  -0.4229  -1.0554 C.ar           1 <1>                0.0000
      7 F7          -1.5105  -0.7259  -2.1572 F              1 <1>                0.0000
      8 C8           0.5759  -0.7289  -1.0044 C.ar           1 <1>                0.0000
      9 C9           1.2305  -1.3817  -2.1513 C.2            1 <1>                0.0000
     10 N10          1.2786  -2.7267  -2.2239 N.am           1 <1>                0.0000
     11 O11          1.7275  -0.7070  -3.0327 O.2            1 <1>                0.0000
     12 C12          1.3171  -0.4116   0.1407 C.ar           1 <1>                0.0000
     13 F13          2.6349  -0.7041   0.1964 F              1 <1>                0.0000
     14 C14          0.6996   0.2064   1.2106 C.ar           1 <1>                0.0000
     15 F15          1.4134   0.5131   2.3159 F              1 <1>                0.0000
     16 H16         -0.2578   2.9116   2.2140 H              1 <1>                0.0000
     17 H17         -1.8076   2.8954   1.3387 H              1 <1>                0.0000
     18 H18         -1.7906   2.8858   3.1186 H              1 <1>                0.0000
     19 H19          1.7096  -3.1565  -2.9792 H              1 <1>                0.0000
     20 H20          0.8822  -3.2648  -1.5209 H              1 <1>                0.0000
@<TRIPOS>BOND
    1    1    2 1     
    2    1   16 1     
    3    1   17 1     
    4    1   18 1     
    5    2    3 1     
    6    3   14 ar    
    7    3    4 ar    
    8    4    5 1     
    9    4    6 ar    
   10    6    7 1     
   11    6    8 ar    
   12    8    9 1     
   13    8   12 ar    
   14    9   10 am    
   15    9   11 2     
   16   10   19 1     
   17   10   20 1     
   18   12   13 1     
   19   12   14 ar    
   20   14   15 1     
@<TRIPOS>SUBSTRUCTURE
      1 ****           1
@<TRIPOS>SET
DONOR_HYDROGENS      STATIC     ATOMS    <user>   **** ""
2 19 20
ATOM$RED        STATIC     ATOMS    COLORGROUP SYSTEM
2 19 20
