#       Name:                BNG
#       Creating user name   gbret
#       Creation time:       Fri Sep  9 04:54:37 2016


#       File generated by GOLD software.
#

@<TRIPOS>MOLECULE
BNG
    51    51     1
SMALL
NO_CHARGES


@<TRIPOS>ATOM
      1 C1           4.9776   7.3920   0.4281 C.3            1 <1>                0.0000
      2 C2           4.9984   5.8621   0.4197 C.3            1 <1>                0.0000
      3 C3           3.5630   5.3326   0.4306 C.3            1 <1>                0.0000
      4 C4           3.5837   3.8027   0.4222 C.3            1 <1>                0.0000
      5 C5           2.1484   3.2731   0.4330 C.3            1 <1>                0.0000
      6 C6           2.1691   1.7433   0.4246 C.3            1 <1>                0.0000
      7 C7           0.7337   1.2137   0.4355 C.3            1 <1>                0.0000
      8 C8           0.7545  -0.3161   0.4271 C.3            1 <1>                0.0000
      9 C9          -0.6809  -0.8457   0.4379 C.3            1 <1>                0.0000
     10 O10         -0.6615  -2.2745   0.4301 O.3            1 <1>                0.0000
     11 C11         -1.9589  -2.8735   0.4392 C.3            1 <1>                0.0000
     12 O12         -2.5963  -2.6492  -0.8200 O.3            1 <1>                0.0000
     13 C13         -3.9169  -3.1878  -0.9096 C.3            1 <1>                0.0000
     14 C14         -4.5077  -2.8643  -2.2834 C.3            1 <1>                0.0000
     15 O15         -4.6667  -1.4501  -2.4126 O.3            1 <1>                0.0000
     16 C16         -3.8610  -4.7062  -0.7226 C.3            1 <1>                0.0000
     17 O17         -3.0851  -5.2884  -1.7719 O.3            1 <1>                0.0000
     18 C18         -3.2135  -5.0228   0.6290 C.3            1 <1>                0.0000
     19 O19         -3.0904  -6.4385   0.7802 O.3            1 <1>                0.0000
     20 C20         -1.8244  -4.3793   0.6805 C.3            1 <1>                0.0000
     21 O21         -0.9946  -4.9528  -0.3317 O.3            1 <1>                0.0000
     22 H22          6.0002   7.7693   0.4204 H              1 <1>                0.0000
     23 H23          4.4504   7.7530  -0.4549 H              1 <1>                0.0000
     24 H24          4.4674   7.7435   1.3249 H              1 <1>                0.0000
     25 H25          5.5086   5.5106  -0.4771 H              1 <1>                0.0000
     26 H26          5.5256   5.5011   1.3028 H              1 <1>                0.0000
     27 H27          3.0528   5.6841   1.3274 H              1 <1>                0.0000
     28 H28          3.0358   5.6936  -0.4525 H              1 <1>                0.0000
     29 H29          4.0939   3.4512  -0.4746 H              1 <1>                0.0000
     30 H30          4.1109   3.4416   1.3052 H              1 <1>                0.0000
     31 H31          1.6382   3.6247   1.3298 H              1 <1>                0.0000
     32 H32          1.6212   3.6342  -0.4500 H              1 <1>                0.0000
     33 H33          2.6793   1.3918  -0.4722 H              1 <1>                0.0000
     34 H34          2.6963   1.3822   1.3077 H              1 <1>                0.0000
     35 H35          0.2235   1.5652   1.3323 H              1 <1>                0.0000
     36 H36          0.2065   1.5748  -0.4476 H              1 <1>                0.0000
     37 H37          1.2647  -0.6676  -0.4697 H              1 <1>                0.0000
     38 H38          1.2817  -0.6772   1.3101 H              1 <1>                0.0000
     39 H39         -1.1911  -0.4942   1.3347 H              1 <1>                0.0000
     40 H40         -1.2081  -0.4846  -0.4451 H              1 <1>                0.0000
     41 H41         -2.5584  -2.4301   1.2343 H              1 <1>                0.0000
     42 H42         -4.5422  -2.7484  -0.1324 H              1 <1>                0.0000
     43 H43         -3.8367  -3.2271  -3.0620 H              1 <1>                0.0000
     44 H44         -5.4782  -3.3499  -2.3850 H              1 <1>                0.0000
     45 H45         -5.0375  -1.1719  -3.2612 H              1 <1>                0.0000
     46 H46         -4.8717  -5.1137  -0.7477 H              1 <1>                0.0000
     47 H47         -3.0075  -6.2507  -1.7162 H              1 <1>                0.0000
     48 H48         -3.8321  -4.6228   1.4324 H              1 <1>                0.0000
     49 H49         -2.6872  -6.7112   1.6157 H              1 <1>                0.0000
     50 H50         -1.3786  -4.5529   1.6599 H              1 <1>                0.0000
     51 H51         -0.0981  -4.5912  -0.3569 H              1 <1>                0.0000
@<TRIPOS>BOND
    1    1    2 1     
    2    1   22 1     
    3    1   23 1     
    4    1   24 1     
    5    2    3 1     
    6    2   25 1     
    7    2   26 1     
    8    3    4 1     
    9    3   27 1     
   10    3   28 1     
   11    4    5 1     
   12    4   29 1     
   13    4   30 1     
   14    5    6 1     
   15    5   31 1     
   16    5   32 1     
   17    6    7 1     
   18    6   33 1     
   19    6   34 1     
   20    7    8 1     
   21    7   35 1     
   22    7   36 1     
   23    8    9 1     
   24    8   37 1     
   25    8   38 1     
   26    9   10 1     
   27    9   39 1     
   28    9   40 1     
   29   10   11 1     
   30   11   20 1     
   31   11   12 1     
   32   11   41 1     
   33   12   13 1     
   34   13   14 1     
   35   13   16 1     
   36   13   42 1     
   37   14   15 1     
   38   14   43 1     
   39   14   44 1     
   40   15   45 1     
   41   16   17 1     
   42   16   18 1     
   43   16   46 1     
   44   17   47 1     
   45   18   19 1     
   46   18   20 1     
   47   18   48 1     
   48   19   49 1     
   49   20   21 1     
   50   20   50 1     
   51   21   51 1     
@<TRIPOS>SUBSTRUCTURE
      1 ****           1
@<TRIPOS>SET
DONOR_HYDROGENS      STATIC     ATOMS    <user>   **** ""
4 45 47 49 51
ATOM$RED        STATIC     ATOMS    COLORGROUP SYSTEM
4 45 47 49 51
