#       Name:                BNU
#       Creating user name   gbret
#       Creation time:       Fri Sep  9 04:55:31 2016


#       File generated by GOLD software.
#

@<TRIPOS>MOLECULE
BNU
    41    43     1
SMALL
NO_CHARGES


@<TRIPOS>ATOM
      1 C1           1.3735   1.6394   2.4904 C.3            1 <1>                0.0000
      2 C2           1.3943   0.1095   2.4820 C.3            1 <1>                0.0000
      3 N3           0.0199  -0.3976   2.4924 N.pl3          1 <1>                0.0000
      4 C4          -0.5365  -0.7165   3.6672 C.2            1 <1>                0.0000
      5 C5          -1.8270  -1.2005   3.7625 C.2            1 <1>                0.0000
      6 C6          -2.4019  -1.5386   5.0685 C.2            1 <1>                0.0000
      7 O7          -1.7372  -1.3927   6.0861 O.co2          1 <1>                0.0000
      8 O8          -3.5464  -1.9667   5.1412 O.co2          1 <1>                0.0000
      9 C9          -2.6163  -1.3708   2.5301 C.2            1 <1>                0.0000
     10 O10         -3.7588  -1.7937   2.5612 O.2            1 <1>                0.0000
     11 C11         -1.9668  -1.0082   1.2593 C.ar           1 <1>                0.0000
     12 C12         -2.6412  -1.1368   0.0428 C.ar           1 <1>                0.0000
     13 C13         -2.0150  -0.7922  -1.1203 C.ar           1 <1>                0.0000
     14 Br14        -2.9277  -0.9654  -2.7673 Br             1 <1>                0.0000
     15 C15         -0.7038  -0.3120  -1.0997 C.ar           1 <1>                0.0000
     16 C16         -0.0213  -0.1792   0.0991 C.ar           1 <1>                0.0000
     17 C17         -0.6475  -0.5206   1.2919 C.ar           1 <1>                0.0000
     18 N18         -0.0772   0.0356  -2.2929 N.3            1 <1>                0.0000
     19 C19          0.2381   1.4708  -2.3236 C.3            1 <1>                0.0000
     20 C20          0.8701   1.8225  -3.6721 C.3            1 <1>                0.0000
     21 N21          2.0928   1.0308  -3.8614 N.4            1 <1>                0.0000
     22 H22          2.5159   1.2719  -4.7451 H              1 <1>                0.0000
     23 H23          2.7405   1.2287  -3.1135 H              1 <1>                0.0000
     24 C24          1.7583  -0.3994  -3.8530 C.3            1 <1>                0.0000
     25 C25          1.1337  -0.7695  -2.5060 C.3            1 <1>                0.0000
     26 H26          2.3961   2.0167   2.4827 H              1 <1>                0.0000
     27 H27          0.8463   2.0004   1.6074 H              1 <1>                0.0000
     28 H28          0.8633   1.9909   3.3872 H              1 <1>                0.0000
     29 H29          1.9045  -0.2420   1.5852 H              1 <1>                0.0000
     30 H30          1.9215  -0.2515   3.3651 H              1 <1>                0.0000
     31 H31          0.0426  -0.5919   4.5703 H              1 <1>                0.0000
     32 H32         -3.6552  -1.5081   0.0224 H              1 <1>                0.0000
     33 H33          0.9927   0.1926   0.1068 H              1 <1>                0.0000
     34 H34         -0.6772   2.0473  -2.1895 H              1 <1>                0.0000
     35 H35          0.9376   1.7067  -1.5216 H              1 <1>                0.0000
     36 H36          0.1651   1.5992  -4.4729 H              1 <1>                0.0000
     37 H37          1.1178   2.8838  -3.6916 H              1 <1>                0.0000
     38 H38          1.0488  -0.6113  -4.6529 H              1 <1>                0.0000
     39 H39          2.6645  -0.9854  -4.0066 H              1 <1>                0.0000
     40 H40          1.8480  -0.5706  -1.7070 H              1 <1>                0.0000
     41 H41          0.8718  -1.8276  -2.5050 H              1 <1>                0.0000
@<TRIPOS>BOND
    1    1    2 1     
    2    1   26 1     
    3    1   27 1     
    4    1   28 1     
    5    2    3 1     
    6    2   29 1     
    7    2   30 1     
    8    3   17 1     
    9    3    4 1     
   10    4    5 2     
   11    4   31 1     
   12    5    6 1     
   13    5    9 1     
   14    6    7 ar    
   15    6    8 ar    
   16    9   10 2     
   17    9   11 1     
   18   11   17 ar    
   19   11   12 ar    
   20   12   13 ar    
   21   12   32 1     
   22   13   14 1     
   23   13   15 ar    
   24   15   16 ar    
   25   15   18 1     
   26   16   17 ar    
   27   16   33 1     
   28   18   25 1     
   29   18   19 1     
   30   19   20 1     
   31   19   34 1     
   32   19   35 1     
   33   20   21 1     
   34   20   36 1     
   35   20   37 1     
   36   21   22 1     
   37   21   23 1     
   38   21   24 1     
   39   24   25 1     
   40   24   38 1     
   41   24   39 1     
   42   25   40 1     
   43   25   41 1     
@<TRIPOS>SUBSTRUCTURE
      1 ****           1
@<TRIPOS>SET
DONOR_HYDROGENS      STATIC     ATOMS    <user>   **** ""
2 22 23
ATOM$RED        STATIC     ATOMS    COLORGROUP SYSTEM
2 22 23
