#       Name:                BO7
#       Creating user name   gbret
#       Creation time:       Fri Sep  9 04:55:47 2016


#       File generated by GOLD software.
#

@<TRIPOS>MOLECULE
BO7
    22    22     1
SMALL
NO_CHARGES


@<TRIPOS>ATOM
      1 C1           1.9945   2.9803  -0.0057 C.3            1 <1>                0.0000
      2 O2           2.0139   1.5514  -0.0136 O.3            1 <1>                0.0000
      3 C3           0.8141   0.9194  -0.0055 C.ar           1 <1>                0.0000
      4 C4          -0.3594   1.6552   0.0039 C.ar           1 <1>                0.0000
      5 C5          -1.5841   1.0135   0.0122 C.ar           1 <1>                0.0000
      6 C6          -1.6534  -0.3673   0.0116 C.ar           1 <1>                0.0000
      7 C7          -0.4935  -1.1244   0.0023 C.ar           1 <1>                0.0000
      8 O8          -0.5645  -2.4787   0.0017 O.3            1 <1>                0.0000
      9 C9          -1.8700  -3.0599   0.0111 C.3            1 <1>                0.0000
     10 C10          0.7564  -0.4839  -0.0125 C.ar           1 <1>                0.0000
     11 C11          1.9929  -1.2751  -0.0230 C.2            1 <1>                0.0000
     12 O12          1.9372  -2.4976  -0.0188 O.co2          1 <1>                0.0000
     13 O13          3.0795  -0.7121  -0.0359 O.co2          1 <1>                0.0000
     14 H14          3.0171   3.3576  -0.0135 H              1 <1>                0.0000
     15 H15          1.4673   3.3414  -0.8888 H              1 <1>                0.0000
     16 H16          1.4843   3.3318   0.8911 H              1 <1>                0.0000
     17 H17         -0.3177   2.7344   0.0052 H              1 <1>                0.0000
     18 H18         -2.4938   1.5956   0.0195 H              1 <1>                0.0000
     19 H19         -2.6157  -0.8575   0.0189 H              1 <1>                0.0000
     20 H20         -2.4042  -2.7390   0.9054 H              1 <1>                0.0000
     21 H21         -2.4176  -2.7375  -0.8745 H              1 <1>                0.0000
     22 H22         -1.7839  -4.1465   0.0096 H              1 <1>                0.0000
@<TRIPOS>BOND
    1    1    2 1     
    2    1   14 1     
    3    1   15 1     
    4    1   16 1     
    5    2    3 1     
    6    3   10 ar    
    7    3    4 ar    
    8    4    5 ar    
    9    4   17 1     
   10    5    6 ar    
   11    5   18 1     
   12    6    7 ar    
   13    6   19 1     
   14    7    8 1     
   15    7   10 ar    
   16    8    9 1     
   17    9   20 1     
   18    9   21 1     
   19    9   22 1     
   20   10   11 1     
   21   11   12 ar    
   22   11   13 ar    
@<TRIPOS>SUBSTRUCTURE
      1 ****           1
