@<TRIPOS>MOLECULE
BP
  39   43    0    0    0
SMALL
NO_CHARGES


@<TRIPOS>ATOM
   1 O1            -0.0173     1.4248     0.0099 O.3     
   2 C2             0.0021    -0.0041     0.0020 C.3     
   3 C3             0.7135    -0.5162     1.2522 C.3     
   4 C4             0.5530    -2.0086     1.3826 C.ar    
   5 C5            -0.4170    -2.7139     0.7051 C.ar    
   6 C6            -0.5379    -4.0902     0.8587 C.ar    
   7 C7             0.3228    -4.7947     1.6982 C.ar    
   8 C8             0.2243    -6.1969     1.8722 C.ar    
   9 C9             1.0734    -6.8562     2.6930 C.ar    
  10 C10            2.0850    -6.1633     3.4018 C.ar    
  11 C11            2.9720    -6.8245     4.2552 C.ar    
  12 C12            3.9449    -6.1125     4.9296 C.ar    
  13 C13            4.0716    -4.7440     4.7851 C.ar    
  14 C14            3.2048    -4.0457     3.9411 C.ar    
  15 C15            3.3008    -2.6436     3.7657 C.ar    
  16 C16            2.4509    -1.9860     2.9443 C.ar    
  17 C17            1.4408    -2.6831     2.2359 C.ar    
  18 C18            1.3230    -4.0795     2.3932 C.ar    
  19 C19            2.2058    -4.7644     3.2465 C.ar    
  20 C20           -1.3865    -2.0458    -0.2379 C.3     
  21 O21           -2.6900    -2.5973    -0.0411 O.3     
  22 C22           -1.4343    -0.5407     0.0128 C.3     
  23 O23           -2.0353    -0.2832     1.2835 O.3     
  24 H24            0.8606     1.8301     0.0037 H       
  25 H25            0.5206    -0.3597    -0.8884 H       
  26 H26            1.7741    -0.2736     1.1866 H       
  27 H27            0.2887    -0.0313     2.1311 H       
  28 H28           -1.3095    -4.6206     0.3204 H       
  29 H29           -0.5394    -6.7471     1.3425 H       
  30 H30            0.9789    -7.9257     2.8093 H       
  31 H31            2.8967    -7.8937     4.3881 H       
  32 H32            4.6228    -6.6379     5.5860 H       
  33 H33            4.8415    -4.2136     5.3256 H       
  34 H34            4.0630    -2.0917     4.2956 H       
  35 H35            2.5430    -0.9163     2.8271 H       
  36 H36           -1.0711    -2.2280    -1.2653 H       
  37 H37           -2.7426    -3.5495    -0.2016 H       
  38 H38           -2.0134    -0.0557    -0.7730 H       
  39 H39           -2.9408    -0.6128     1.3643 H       
@<TRIPOS>BOND
   1    1    2 1
   2    1   24 1
   3    2   22 1
   4    2    3 1
   5    2   25 1
   6    3    4 1
   7    3   26 1
   8    3   27 1
   9    4   17 ar
  10    4    5 ar
  11    5    6 ar
  12    5   20 1
  13    6    7 ar
  14    6   28 1
  15    7   18 ar
  16    7    8 ar
  17    8    9 ar
  18    8   29 1
  19    9   10 ar
  20    9   30 1
  21   10   19 ar
  22   10   11 ar
  23   11   12 ar
  24   11   31 1
  25   12   13 ar
  26   12   32 1
  27   13   14 ar
  28   13   33 1
  29   14   19 ar
  30   14   15 ar
  31   15   16 ar
  32   15   34 1
  33   16   17 ar
  34   16   35 1
  35   17   18 ar
  36   18   19 ar
  37   20   21 1
  38   20   22 1
  39   20   36 1
  40   21   37 1
  41   22   23 1
  42   22   38 1
  43   23   39 1





