#       Name:                BPN
#       Creating user name   gbret
#       Creation time:       Fri Sep  9 04:58:17 2016


#       File generated by GOLD software.
#

@<TRIPOS>MOLECULE
BPN
    18    18     1
SMALL
NO_CHARGES


@<TRIPOS>ATOM
      1 O1           2.3454   2.1974  -0.0106 O.3            1 <1>                0.0000
      2 C2           2.3648   0.7685  -0.0185 C.3            1 <1>                0.0000
      3 C3           0.9510   0.2469  -0.0078 C.ar           1 <1>                0.0000
      4 C4           0.3120   0.0066   1.1942 C.ar           1 <1>                0.0000
      5 C5          -0.9849  -0.4719   1.2041 C.ar           1 <1>                0.0000
      6 C6          -1.6429  -0.7096   0.0119 C.ar           1 <1>                0.0000
      7 C7          -1.0043  -0.4684  -1.1902 C.ar           1 <1>                0.0000
      8 C8           0.2911   0.0141  -1.2000 C.ar           1 <1>                0.0000
      9 N9          -3.0312  -1.2229   0.0224 N.pl3          1 <1>                0.0000
     10 O10         -3.5938  -1.4357   1.0815 O.2            1 <1>                0.0000
     11 O11         -3.6110  -1.4323  -1.0281 O.2            1 <1>                0.0000
     12 H12          3.2233   2.6027  -0.0168 H              1 <1>                0.0000
     13 H13          2.8750   0.4170  -0.9153 H              1 <1>                0.0000
     14 H14          2.8920   0.4075   0.8646 H              1 <1>                0.0000
     15 H15          0.8261   0.1923   2.1257 H              1 <1>                0.0000
     16 H16         -1.4838  -0.6603   2.1432 H              1 <1>                0.0000
     17 H17         -1.5182  -0.6545  -2.1216 H              1 <1>                0.0000
     18 H18          0.7901   0.2025  -2.1391 H              1 <1>                0.0000
@<TRIPOS>BOND
    1    1    2 1     
    2    1   12 1     
    3    2    3 1     
    4    2   13 1     
    5    2   14 1     
    6    3    8 ar    
    7    3    4 ar    
    8    4    5 ar    
    9    4   15 1     
   10    5    6 ar    
   11    5   16 1     
   12    6    7 ar    
   13    6    9 1     
   14    7    8 ar    
   15    7   17 1     
   16    8   18 1     
   17    9   10 2     
   18    9   11 2     
@<TRIPOS>SUBSTRUCTURE
      1 ****           1
@<TRIPOS>SET
DONOR_HYDROGENS      STATIC     ATOMS    <user>   **** ""
1 12
ATOM$RED        STATIC     ATOMS    COLORGROUP SYSTEM
1 12
