#       Name:                BR3
#       Creating user name   gbret
#       Creation time:       Fri Sep  9 04:59:30 2016


#       File generated by GOLD software.
#

@<TRIPOS>MOLECULE
BR3
    29    30     1
SMALL
NO_CHARGES


@<TRIPOS>ATOM
      1 C1           0.0755   4.5252  -0.5980 C.3            1 <1>                0.0000
      2 C2           0.0960   3.0183  -0.6063 C.ar           1 <1>                0.0000
      3 C3           0.0996   2.3333  -1.8076 C.ar           1 <1>                0.0000
      4 C4           0.1206   0.9538  -1.8140 C.ar           1 <1>                0.0000
      5 C5           0.1383   0.2481  -0.6149 C.ar           1 <1>                0.0000
      6 O6           0.1699  -1.1091  -0.6618 O.3            1 <1>                0.0000
      7 C7          -0.1802  -1.8264   0.5226 C.3            1 <1>                0.0000
      8 C8           0.1797  -3.3040   0.3555 C.3            1 <1>                0.0000
      9 P9          -0.8428  -4.0328  -0.9661 P.3            1 <1>                0.0000
     10 O10         -0.4794  -5.5250  -1.1349 O.co2          1 <1>                0.0000
     11 O11         -2.3362  -3.9058  -0.5911 O.co2          1 <1>                0.0000
     12 C12          0.6063  -1.2329   1.6983 C.3            1 <1>                0.0000
     13 C13          0.1423   0.2108   1.9072 C.3            1 <1>                0.0000
     14 C14          0.1305   0.9363   0.5855 C.ar           1 <1>                0.0000
     15 C15          0.1168   2.3213   0.5857 C.ar           1 <1>                0.0000
     16 H16          1.0981   4.9025  -0.6057 H              1 <1>                0.0000
     17 H17         -0.4516   4.8863  -1.4811 H              1 <1>                0.0000
     18 H18         -0.4347   4.8767   0.2988 H              1 <1>                0.0000
     19 H19          0.0857   2.8778  -2.7401 H              1 <1>                0.0000
     20 H20          0.1229   0.4199  -2.7528 H              1 <1>                0.0000
     21 H21         -1.2497  -1.7279   0.7087 H              1 <1>                0.0000
     22 H22          1.2333  -3.3937   0.0909 H              1 <1>                0.0000
     23 H23         -0.0061  -3.8313   1.2912 H              1 <1>                0.0000
     24 H24         -0.6008  -3.3459  -2.1851 H              1 <1>                0.0000
     25 H25          0.4141  -1.8146   2.5999 H              1 <1>                0.0000
     26 H26          1.6724  -1.2470   1.4716 H              1 <1>                0.0000
     27 H27         -0.8622   0.2114   2.3303 H              1 <1>                0.0000
     28 H28          0.8240   0.7154   2.5919 H              1 <1>                0.0000
     29 H29          0.1177   2.8586   1.5226 H              1 <1>                0.0000
@<TRIPOS>BOND
    1    1    2 1     
    2    1   16 1     
    3    1   17 1     
    4    1   18 1     
    5    2   15 ar    
    6    2    3 ar    
    7    3    4 ar    
    8    3   19 1     
    9    4    5 ar    
   10    4   20 1     
   11    5   14 ar    
   12    5    6 1     
   13    6    7 1     
   14    7    8 1     
   15    7   12 1     
   16    7   21 1     
   17    8    9 1     
   18    8   22 1     
   19    8   23 1     
   20    9   10 ar    
   21    9   11 ar    
   22    9   24 1     
   23   12   13 1     
   24   12   25 1     
   25   12   26 1     
   26   13   14 1     
   27   13   27 1     
   28   13   28 1     
   29   14   15 ar    
   30   15   29 1     
@<TRIPOS>SUBSTRUCTURE
      1 ****           1
