#       Name:                BRV
#       Creating user name   gbret
#       Creation time:       Fri Sep  9 05:01:13 2016


#       File generated by GOLD software.
#

@<TRIPOS>MOLECULE
BRV
    18    18     1
SMALL
NO_CHARGES


@<TRIPOS>ATOM
      1 N1          -0.0382   2.8167   0.0171 N.pl3          1 <1>                0.0000
      2 C2          -0.0192   1.4177   0.0095 C.ar           1 <1>                0.0000
      3 C3          -1.2125   0.7098   0.0112 C.ar           1 <1>                0.0000
      4 Br4         -2.8605   1.6371   0.0241 Br             1 <1>                0.0000
      5 C5          -1.1983  -0.6896   0.0031 C.ar           1 <1>                0.0000
      6 C6          -2.4665  -1.4405   0.0045 C.2            1 <1>                0.0000
      7 O7          -3.5324  -0.8407   0.0129 O.co2          1 <1>                0.0000
      8 O8          -2.4530  -2.6636  -0.0026 O.co2          1 <1>                0.0000
      9 C9           0.0186  -1.3730  -0.0069 C.ar           1 <1>                0.0000
     10 Br10         0.0442  -3.2638  -0.0185 Br             1 <1>                0.0000
     11 C11          1.2166  -0.6568  -0.0086 C.ar           1 <1>                0.0000
     12 C12          2.5046  -1.3730  -0.0196 C.2            1 <1>                0.0000
     13 O13          2.5243  -2.5960  -0.0272 O.co2          1 <1>                0.0000
     14 O14          3.5539  -0.7444  -0.0212 O.co2          1 <1>                0.0000
     15 C15          1.1928   0.7425  -0.0058 C.ar           1 <1>                0.0000
     16 Br16         2.8150   1.7143  -0.0082 Br             1 <1>                0.0000
     17 H17          0.7952   3.3131   0.0119 H              1 <1>                0.0000
     18 H18         -0.8847   3.2902   0.0237 H              1 <1>                0.0000
@<TRIPOS>BOND
    1    1    2 1     
    2    1   17 1     
    3    1   18 1     
    4    2   15 ar    
    5    2    3 ar    
    6    3    4 1     
    7    3    5 ar    
    8    5    6 1     
    9    5    9 ar    
   10    6    7 ar    
   11    6    8 ar    
   12    9   10 1     
   13    9   11 ar    
   14   11   12 1     
   15   11   15 ar    
   16   12   13 ar    
   17   12   14 ar    
   18   15   16 1     
@<TRIPOS>SUBSTRUCTURE
      1 ****           1
@<TRIPOS>SET
DONOR_HYDROGENS      STATIC     ATOMS    <user>   **** ""
2 17 18
ATOM$RED        STATIC     ATOMS    COLORGROUP SYSTEM
2 17 18
