#       Name:                BYP
#       Creating user name   gbret
#       Creation time:       Fri Sep  9 05:09:35 2016


#       File generated by GOLD software.
#

@<TRIPOS>MOLECULE
BYP
    54    56     1
SMALL
NO_CHARGES


@<TRIPOS>ATOM
      1 C1           6.5574   4.2833   0.3269 C.3            1 <1>                0.0000
      2 N2           5.8357   4.4327   1.5977 N.4            1 <1>                0.0000
      3 H3           6.3303   3.9388   2.3254 H              1 <1>                0.0000
      4 C4           5.7469   5.8571   1.9459 C.3            1 <1>                0.0000
      5 C5           4.4829   3.8768   1.4608 C.3            1 <1>                0.0000
      6 C6           4.5720   2.3639   1.2509 C.3            1 <1>                0.0000
      7 O7           5.1116   1.7512   2.4237 O.3            1 <1>                0.0000
      8 C8           3.1744   1.8034   0.9797 C.3            1 <1>                0.0000
      9 O9           3.2713   0.4120   0.6689 O.3            1 <1>                0.0000
     10 C10          2.1101  -0.2428   0.4001 C.ar           1 <1>                0.0000
     11 C11          0.9047   0.4429   0.4296 C.ar           1 <1>                0.0000
     12 C12         -0.2748  -0.2212   0.1563 C.ar           1 <1>                0.0000
     13 C13         -0.2539  -1.5759  -0.1483 C.ar           1 <1>                0.0000
     14 N14         -1.4496  -2.2500  -0.4261 N.pl3          1 <1>                0.0000
     15 C15         -2.4858  -1.5880  -1.0642 C.ar           1 <1>                0.0000
     16 N16         -2.2900  -0.3534  -1.5033 N.ar           1 <1>                0.0000
     17 C17         -3.2564   0.3119  -2.1188 C.ar           1 <1>                0.0000
     18 C18         -4.4842  -0.2954  -2.3025 C.ar           1 <1>                0.0000
     19 Br19        -5.8927   0.6152  -3.1758 Br             1 <1>                0.0000
     20 C20         -4.6607  -1.5977  -1.8286 C.ar           1 <1>                0.0000
     21 N21         -5.8754  -2.2468  -1.9905 N.pl3          1 <1>                0.0000
     22 C22         -6.0796  -3.5024  -1.4110 C.ar           1 <1>                0.0000
     23 C23         -5.4690  -3.8198  -0.2044 C.ar           1 <1>                0.0000
     24 C24         -5.6728  -5.0612   0.3654 C.ar           1 <1>                0.0000
     25 C25         -6.4838  -5.9878  -0.2640 C.ar           1 <1>                0.0000
     26 C26         -7.0932  -5.6751  -1.4653 C.ar           1 <1>                0.0000
     27 C27         -6.8982  -4.4334  -2.0376 C.ar           1 <1>                0.0000
     28 N28         -3.6455  -2.2073  -1.2247 N.ar           1 <1>                0.0000
     29 C29          0.9532  -2.2616  -0.1777 C.ar           1 <1>                0.0000
     30 C30          2.1324  -1.5948   0.0908 C.ar           1 <1>                0.0000
     31 H31          7.5612   4.6958   0.4285 H              1 <1>                0.0000
     32 H32          6.6233   3.2264   0.0686 H              1 <1>                0.0000
     33 H33          6.0231   4.8169  -0.4592 H              1 <1>                0.0000
     34 H34          5.1387   5.9746   2.8428 H              1 <1>                0.0000
     35 H35          6.7470   6.2489   2.1311 H              1 <1>                0.0000
     36 H36          5.2890   6.4046   1.1221 H              1 <1>                0.0000
     37 H37          3.9113   4.0850   2.3653 H              1 <1>                0.0000
     38 H38          3.9872   4.3338   0.6044 H              1 <1>                0.0000
     39 H39          5.2196   2.1527   0.3999 H              1 <1>                0.0000
     40 H40          4.5855   1.8980   3.2217 H              1 <1>                0.0000
     41 H41          2.5520   1.9355   1.8647 H              1 <1>                0.0000
     42 H42          2.7273   2.3333   0.1387 H              1 <1>                0.0000
     43 H43          0.8887   1.4964   0.6669 H              1 <1>                0.0000
     44 H44         -1.2133   0.3128   0.1797 H              1 <1>                0.0000
     45 H45         -1.5522  -3.1804  -0.1717 H              1 <1>                0.0000
     46 H46         -3.0867   1.3181  -2.4727 H              1 <1>                0.0000
     47 H47         -6.5834  -1.8296  -2.5058 H              1 <1>                0.0000
     48 H48         -4.8352  -3.0967   0.2875 H              1 <1>                0.0000
     49 H49         -5.1981  -5.3087   1.3033 H              1 <1>                0.0000
     50 H50         -6.6412  -6.9580   0.1836 H              1 <1>                0.0000
     51 H51         -7.7256  -6.4012  -1.9544 H              1 <1>                0.0000
     52 H52         -7.3747  -4.1897  -2.9756 H              1 <1>                0.0000
     53 H53          0.9702  -3.3153  -0.4141 H              1 <1>                0.0000
     54 H54          3.0713  -2.1280   0.0676 H              1 <1>                0.0000
@<TRIPOS>BOND
    1    1    2 1     
    2    1   31 1     
    3    1   32 1     
    4    1   33 1     
    5    2    3 1     
    6    2    4 1     
    7    2    5 1     
    8    4   34 1     
    9    4   35 1     
   10    4   36 1     
   11    5    6 1     
   12    5   37 1     
   13    5   38 1     
   14    6    7 1     
   15    6    8 1     
   16    6   39 1     
   17    7   40 1     
   18    8    9 1     
   19    8   41 1     
   20    8   42 1     
   21    9   10 1     
   22   10   30 ar    
   23   10   11 ar    
   24   11   12 ar    
   25   11   43 1     
   26   12   13 ar    
   27   12   44 1     
   28   13   14 1     
   29   13   29 ar    
   30   14   15 1     
   31   14   45 1     
   32   15   28 ar    
   33   15   16 ar    
   34   16   17 ar    
   35   17   18 ar    
   36   17   46 1     
   37   18   19 1     
   38   18   20 ar    
   39   20   21 1     
   40   20   28 ar    
   41   21   22 1     
   42   21   47 1     
   43   22   27 ar    
   44   22   23 ar    
   45   23   24 ar    
   46   23   48 1     
   47   24   25 ar    
   48   24   49 1     
   49   25   26 ar    
   50   25   50 1     
   51   26   27 ar    
   52   26   51 1     
   53   27   52 1     
   54   29   30 ar    
   55   29   53 1     
   56   30   54 1     
@<TRIPOS>SUBSTRUCTURE
      1 ****           1
@<TRIPOS>SET
DONOR_HYDROGENS      STATIC     ATOMS    <user>   **** ""
4 3 40 45 47
ATOM$RED        STATIC     ATOMS    COLORGROUP SYSTEM
4 3 40 45 47
