#       Name:                C18
#       Creating user name   gbret
#       Creation time:       Fri Sep  9 05:13:22 2016


#       File generated by GOLD software.
#

@<TRIPOS>MOLECULE
C18
    40    42     1
SMALL
NO_CHARGES


@<TRIPOS>ATOM
      1 C1           2.5086   4.7118   2.1301 C.3            1 <1>                0.0000
      2 N2           2.5285   3.2429   2.1220 N.4            1 <1>                0.0000
      3 H3           3.0165   2.9087   2.9395 H              1 <1>                0.0000
      4 H4           1.5819   2.8937   2.1292 H              1 <1>                0.0000
      5 C5           3.2161   2.7692   0.9134 C.3            1 <1>                0.0000
      6 C6           3.2365   1.2623   0.9051 C.2            1 <1>                0.0000
      7 C7           4.3430   0.5774   1.2949 C.2            1 <1>                0.0000
      8 C8           4.3370  -0.8325   1.2787 C.2            1 <1>                0.0000
      9 O9           5.3356  -1.4342   1.6310 O.2            1 <1>                0.0000
     10 O10          3.2589  -1.5284   0.8853 O.3            1 <1>                0.0000
     11 C11          2.1274  -0.9092   0.4859 C.ar           1 <1>                0.0000
     12 C12          1.0222  -1.6433   0.0825 C.ar           1 <1>                0.0000
     13 C13         -0.1285  -0.9878  -0.3234 C.ar           1 <1>                0.0000
     14 O14         -1.2098  -1.7076  -0.7176 O.3            1 <1>                0.0000
     15 C15         -2.3655  -0.9721  -1.1246 C.3            1 <1>                0.0000
     16 C16         -3.4565  -1.9317  -1.5245 C.ar           1 <1>                0.0000
     17 C17         -3.5496  -2.3655  -2.8340 C.ar           1 <1>                0.0000
     18 C18         -4.5497  -3.2459  -3.2015 C.ar           1 <1>                0.0000
     19 C19         -5.4577  -3.6930  -2.2599 C.ar           1 <1>                0.0000
     20 C20         -5.3651  -3.2593  -0.9496 C.ar           1 <1>                0.0000
     21 Cl21        -6.5047  -3.8207   0.2335 Cl             1 <1>                0.0000
     22 C22         -4.3602  -2.3823  -0.5811 C.ar           1 <1>                0.0000
     23 C23         -0.1854   0.4048  -0.3300 C.ar           1 <1>                0.0000
     24 C24          0.8931   1.1425   0.0634 C.ar           1 <1>                0.0000
     25 C25          2.0620   0.4966   0.4824 C.ar           1 <1>                0.0000
     26 H26          3.5311   5.0891   2.1224 H              1 <1>                0.0000
     27 H27          1.9814   5.0729   1.2470 H              1 <1>                0.0000
     28 H28          1.9984   5.0633   3.0269 H              1 <1>                0.0000
     29 H29          2.6889   3.1303   0.0303 H              1 <1>                0.0000
     30 H30          4.2387   3.1465   0.9057 H              1 <1>                0.0000
     31 H31          5.2251   1.1114   1.6161 H              1 <1>                0.0000
     32 H32          1.0587  -2.7227   0.0845 H              1 <1>                0.0000
     33 H33         -2.7118  -0.3525  -0.2973 H              1 <1>                0.0000
     34 H34         -2.1115  -0.3366  -1.9729 H              1 <1>                0.0000
     35 H35         -2.8408  -2.0160  -3.5701 H              1 <1>                0.0000
     36 H36         -4.6219  -3.5845  -4.2245 H              1 <1>                0.0000
     37 H37         -6.2396  -4.3804  -2.5473 H              1 <1>                0.0000
     38 H38         -4.2874  -2.0433   0.4417 H              1 <1>                0.0000
     39 H39         -1.0888   0.9033  -0.6489 H              1 <1>                0.0000
     40 H40          0.8433   2.2213   0.0558 H              1 <1>                0.0000
@<TRIPOS>BOND
    1    1    2 1     
    2    1   26 1     
    3    1   27 1     
    4    1   28 1     
    5    2    3 1     
    6    2    4 1     
    7    2    5 1     
    8    5    6 1     
    9    5   29 1     
   10    5   30 1     
   11    6   25 1     
   12    6    7 2     
   13    7    8 1     
   14    7   31 1     
   15    8    9 2     
   16    8   10 1     
   17   10   11 1     
   18   11   25 ar    
   19   11   12 ar    
   20   12   13 ar    
   21   12   32 1     
   22   13   14 1     
   23   13   23 ar    
   24   14   15 1     
   25   15   16 1     
   26   15   33 1     
   27   15   34 1     
   28   16   22 ar    
   29   16   17 ar    
   30   17   18 ar    
   31   17   35 1     
   32   18   19 ar    
   33   18   36 1     
   34   19   20 ar    
   35   19   37 1     
   36   20   21 1     
   37   20   22 ar    
   38   22   38 1     
   39   23   24 ar    
   40   23   39 1     
   41   24   25 ar    
   42   24   40 1     
@<TRIPOS>SUBSTRUCTURE
      1 ****           1
@<TRIPOS>SET
DONOR_HYDROGENS      STATIC     ATOMS    <user>   **** ""
2 3 4
ATOM$RED        STATIC     ATOMS    COLORGROUP SYSTEM
2 3 4
