#       Name:                C4S
#       Creating user name   gbret
#       Creation time:       Fri Sep  9 05:19:36 2016


#       File generated by GOLD software.
#

@<TRIPOS>MOLECULE
C4S
    32    33     1
SMALL
NO_CHARGES


@<TRIPOS>ATOM
      1 N1          -1.5459   5.2542  -0.2680 N.pl3          1 <1>                0.0000
      2 C2          -1.5272   3.8787  -0.2756 C.2            1 <1>                0.0000
      3 C3          -2.7363   3.1532  -0.2738 C.2            1 <1>                0.0000
      4 C4          -2.6892   1.8000  -0.2819 C.2            1 <1>                0.0000
      5 N5          -1.4782   1.1753  -0.2914 N.am           1 <1>                0.0000
      6 C6          -1.4132  -0.2882  -0.3007 C.3            1 <1>                0.0000
      7 C7          -0.4607  -0.7869  -1.4068 C.3            1 <1>                0.0000
      8 C8           0.3408  -2.0104  -0.9809 C.3            1 <1>                0.0000
      9 O9           1.7337  -1.7010  -1.0605 O.3            1 <1>                0.0000
     10 C10          0.0117  -2.4634   0.4564 C.3            1 <1>                0.0000
     11 C11          1.2704  -2.9597   1.1709 C.3            1 <1>                0.0000
     12 O12          2.2748  -1.9441   1.1270 O.3            1 <1>                0.0000
     13 P13          3.7337  -2.1248   1.7835 P.3            1 <1>                0.0000
     14 O14          4.5081  -3.2598   1.0309 O.co2          1 <1>                0.0000
     15 O15          4.5302  -0.7811   1.6639 O.co2          1 <1>                0.0000
     16 O16          3.5823  -2.5094   3.2947 O.co2          1 <1>                0.0000
     17 S17         -0.6116  -0.9158   1.2314 S.3            1 <1>                0.0000
     18 C18         -0.3417   1.8958  -0.2929 C.2            1 <1>                0.0000
     19 O19          0.7337   1.3199  -0.3019 O.2            1 <1>                0.0000
     20 N20         -0.3717   3.2273  -0.2901 N.2            1 <1>                0.0000
     21 H21         -0.7125   5.7506  -0.2732 H              1 <1>                0.0000
     22 H22         -2.3924   5.7278  -0.2614 H              1 <1>                0.0000
     23 H23         -3.6852   3.6689  -0.2658 H              1 <1>                0.0000
     24 H24         -3.6016   1.2220  -0.2804 H              1 <1>                0.0000
     25 H25         -2.4081  -0.7173  -0.4204 H              1 <1>                0.0000
     26 H26         -1.0476  -1.0399  -2.2898 H              1 <1>                0.0000
     27 H27          0.2308   0.0152  -1.6646 H              1 <1>                0.0000
     28 H28          0.1229  -2.8303  -1.6653 H              1 <1>                0.0000
     29 H29          2.0359  -1.4738  -1.9505 H              1 <1>                0.0000
     30 H30         -0.7584  -3.2347   0.4522 H              1 <1>                0.0000
     31 H31          1.0318  -3.1900   2.2093 H              1 <1>                0.0000
     32 H32          1.6395  -3.8574   0.6751 H              1 <1>                0.0000
@<TRIPOS>BOND
    1    1    2 1     
    2    1   21 1     
    3    1   22 1     
    4    2   20 2     
    5    2    3 1     
    6    3    4 2     
    7    3   23 1     
    8    4    5 1     
    9    4   24 1     
   10    5    6 1     
   11    5   18 am    
   12    6   17 1     
   13    6    7 1     
   14    6   25 1     
   15    7    8 1     
   16    7   26 1     
   17    7   27 1     
   18    8    9 1     
   19    8   10 1     
   20    8   28 1     
   21    9   29 1     
   22   10   11 1     
   23   10   17 1     
   24   10   30 1     
   25   11   12 1     
   26   11   31 1     
   27   11   32 1     
   28   12   13 1     
   29   13   14 ar    
   30   13   15 ar    
   31   13   16 ar    
   32   18   19 2     
   33   18   20 1     
@<TRIPOS>SUBSTRUCTURE
      1 ****           1
@<TRIPOS>SET
DONOR_HYDROGENS      STATIC     ATOMS    <user>   **** ""
3 21 22 29
ATOM$RED        STATIC     ATOMS    COLORGROUP SYSTEM
3 21 22 29
