#       Name:                C8P
#       Creating user name   gbret
#       Creation time:       Fri Sep  9 05:24:18 2016


#       File generated by GOLD software.
#

@<TRIPOS>MOLECULE
C8P
   115   116     1
SMALL
NO_CHARGES


@<TRIPOS>ATOM
      1 C1          -4.2671  12.6837  10.1244 C.3            1 <1>                0.0000
      2 C2          -4.2463  11.1538  10.1160 C.3            1 <1>                0.0000
      3 C3          -3.5302  10.6604   8.8572 C.3            1 <1>                0.0000
      4 C4          -3.5094   9.1306   8.8488 C.3            1 <1>                0.0000
      5 C5          -2.7933   8.6372   7.5900 C.3            1 <1>                0.0000
      6 C6          -2.7726   7.1073   7.5816 C.3            1 <1>                0.0000
      7 C7          -2.0564   6.6139   6.3228 C.3            1 <1>                0.0000
      8 C8          -2.0357   5.0841   6.3144 C.3            1 <1>                0.0000
      9 C9          -1.3195   4.5906   5.0556 C.3            1 <1>                0.0000
     10 C10         -1.2988   3.0608   5.0472 C.3            1 <1>                0.0000
     11 C11         -0.5826   2.5674   3.7883 C.3            1 <1>                0.0000
     12 C12         -0.5619   1.0376   3.7799 C.3            1 <1>                0.0000
     13 C13          0.1542   0.5441   2.5211 C.3            1 <1>                0.0000
     14 C14          0.1750  -0.9857   2.5127 C.3            1 <1>                0.0000
     15 C15          0.8911  -1.4791   1.2539 C.3            1 <1>                0.0000
     16 O16          2.2633  -1.0827   1.3002 O.3            1 <1>                0.0000
     17 C17          0.8032  -3.0049   1.1821 C.3            1 <1>                0.0000
     18 O18         -0.5689  -3.4013   1.1358 O.3            1 <1>                0.0000
     19 C19          1.5194  -3.4983  -0.0767 C.3            1 <1>                0.0000
     20 C20          1.3253  -5.0097  -0.2145 C.3            1 <1>                0.0000
     21 O21         -0.0707  -5.3143  -0.1968 O.3            1 <1>                0.0000
     22 C22         -0.3632  -6.7076  -0.3201 C.3            1 <1>                0.0000
     23 O23          0.0310  -7.3848   0.8749 O.3            1 <1>                0.0000
     24 C24         -0.1949  -8.7956   0.8476 C.3            1 <1>                0.0000
     25 C25          0.2885  -9.4153   2.1604 C.3            1 <1>                0.0000
     26 O26          1.7052  -9.2614   2.2665 O.3            1 <1>                0.0000
     27 C27         -1.6915  -9.0681   0.6750 C.3            1 <1>                0.0000
     28 O28         -2.4055  -8.5381   1.7936 O.3            1 <1>                0.0000
     29 C29         -2.1804  -8.3938  -0.6105 C.3            1 <1>                0.0000
     30 O30         -3.5910  -8.5809  -0.7418 O.3            1 <1>                0.0000
     31 C31         -1.8665  -6.8962  -0.5396 C.3            1 <1>                0.0000
     32 O32         -2.5852  -6.3086   0.5468 O.3            1 <1>                0.0000
     33 N33          0.9609  -2.8251  -1.2519 N.am           1 <1>                0.0000
     34 C34          1.7049  -2.6886  -2.3673 C.2            1 <1>                0.0000
     35 O35          2.8368  -3.1231  -2.3982 O.2            1 <1>                0.0000
     36 C36          1.1304  -1.9960  -3.5762 C.3            1 <1>                0.0000
     37 C37          2.1729  -1.9757  -4.6958 C.3            1 <1>                0.0000
     38 C38          1.5896  -1.2726  -5.9231 C.3            1 <1>                0.0000
     39 C39          2.6322  -1.2522  -7.0427 C.3            1 <1>                0.0000
     40 C40          2.0489  -0.5491  -8.2700 C.3            1 <1>                0.0000
     41 C41          3.0915  -0.5287  -9.3897 C.3            1 <1>                0.0000
     42 C42          2.5082   0.1744 -10.6170 C.3            1 <1>                0.0000
     43 C43          3.5351   0.1944 -11.7198 C.ar           1 <1>                0.0000
     44 C44          4.4232   1.2492 -11.8181 C.ar           1 <1>                0.0000
     45 C45          5.3651   1.2676 -12.8296 C.ar           1 <1>                0.0000
     46 C46          5.4193   0.2310 -13.7426 C.ar           1 <1>                0.0000
     47 C47          4.5318  -0.8242 -13.6437 C.ar           1 <1>                0.0000
     48 C48          3.5926  -0.8447 -12.6296 C.ar           1 <1>                0.0000
     49 H49         -3.2445  13.0610  10.1167 H              1 <1>                0.0000
     50 H50         -4.7943  13.0447   9.2414 H              1 <1>                0.0000
     51 H51         -4.7773  13.0352  11.0212 H              1 <1>                0.0000
     52 H52         -3.7191  10.7928  10.9991 H              1 <1>                0.0000
     53 H53         -5.2689  10.7765  10.1238 H              1 <1>                0.0000
     54 H54         -4.0574  11.0215   7.9742 H              1 <1>                0.0000
     55 H55         -2.5076  11.0377   8.8495 H              1 <1>                0.0000
     56 H56         -2.9823   8.7695   9.7319 H              1 <1>                0.0000
     57 H57         -4.5320   8.7533   8.8565 H              1 <1>                0.0000
     58 H58         -3.3205   8.9982   6.7069 H              1 <1>                0.0000
     59 H59         -1.7707   9.0144   7.5823 H              1 <1>                0.0000
     60 H60         -2.2454   6.7462   8.4646 H              1 <1>                0.0000
     61 H61         -3.7951   6.7300   7.5893 H              1 <1>                0.0000
     62 H62         -2.5836   6.9750   5.4397 H              1 <1>                0.0000
     63 H63         -1.0338   6.9912   6.3150 H              1 <1>                0.0000
     64 H64         -1.5085   4.7230   7.1974 H              1 <1>                0.0000
     65 H65         -3.0583   4.7068   6.3221 H              1 <1>                0.0000
     66 H66         -1.8467   4.9517   4.1725 H              1 <1>                0.0000
     67 H67         -0.2969   4.9679   5.0478 H              1 <1>                0.0000
     68 H68         -0.7716   2.6997   5.9302 H              1 <1>                0.0000
     69 H69         -2.3214   2.6835   5.0549 H              1 <1>                0.0000
     70 H70         -1.1098   2.9285   2.9053 H              1 <1>                0.0000
     71 H71          0.4400   2.9447   3.7806 H              1 <1>                0.0000
     72 H72         -0.0347   0.6765   4.6630 H              1 <1>                0.0000
     73 H73         -1.5845   0.6603   3.7877 H              1 <1>                0.0000
     74 H74         -0.3729   0.9052   1.6381 H              1 <1>                0.0000
     75 H75          1.1768   0.9214   2.5134 H              1 <1>                0.0000
     76 H76          0.7022  -1.3468   3.3958 H              1 <1>                0.0000
     77 H77         -0.8476  -1.3630   2.5205 H              1 <1>                0.0000
     78 H78          0.4173  -1.0460   0.3730 H              1 <1>                0.0000
     79 H79          2.7483  -1.4325   2.0601 H              1 <1>                0.0000
     80 H80          1.2771  -3.4380   2.0630 H              1 <1>                0.0000
     81 H81         -1.0539  -3.0515   0.3760 H              1 <1>                0.0000
     82 H82          2.5834  -3.2740  -0.0009 H              1 <1>                0.0000
     83 H83          1.7590  -5.3473  -1.1558 H              1 <1>                0.0000
     84 H84          1.8184  -5.5165   0.6151 H              1 <1>                0.0000
     85 H85          0.1826  -7.1199  -1.1687 H              1 <1>                0.0000
     86 H86          0.3533  -9.2355   0.0145 H              1 <1>                0.0000
     87 H87         -0.1953  -8.9139   2.9986 H              1 <1>                0.0000
     88 H88          0.0359 -10.4755   2.1764 H              1 <1>                0.0000
     89 H89          2.0815  -9.6321   3.0765 H              1 <1>                0.0000
     90 H90         -1.8610 -10.1429   0.6108 H              1 <1>                0.0000
     91 H91         -3.3618  -8.6752   1.7507 H              1 <1>                0.0000
     92 H92         -1.6727  -8.8338  -1.4689 H              1 <1>                0.0000
     93 H93         -3.9689  -8.1787  -1.5358 H              1 <1>                0.0000
     94 H94         -2.1611  -6.4176  -1.4736 H              1 <1>                0.0000
     95 H95         -2.4334  -5.3593   0.6511 H              1 <1>                0.0000
     96 H96          0.0556  -2.4776  -1.2272 H              1 <1>                0.0000
     97 H97          0.2438  -2.5322  -3.9150 H              1 <1>                0.0000
     98 H98          0.8586  -0.9735  -3.3142 H              1 <1>                0.0000
     99 H99          3.0594  -1.4395  -4.3571 H              1 <1>                0.0000
    100 H100         2.4447  -2.9982  -4.9578 H              1 <1>                0.0000
    101 H101         0.7031  -1.8087  -6.2619 H              1 <1>                0.0000
    102 H102         1.3178  -0.2500  -5.6611 H              1 <1>                0.0000
    103 H103         3.5187  -0.7161  -6.7040 H              1 <1>                0.0000
    104 H104         2.9040  -2.2747  -7.3048 H              1 <1>                0.0000
    105 H105         1.1624  -1.0852  -8.6088 H              1 <1>                0.0000
    106 H106         1.7771   0.4734  -8.0080 H              1 <1>                0.0000
    107 H107         3.9780   0.0074  -9.0509 H              1 <1>                0.0000
    108 H108         3.3633  -1.5513  -9.6517 H              1 <1>                0.0000
    109 H109         1.6217  -0.3617 -10.9557 H              1 <1>                0.0000
    110 H110         2.2364   1.1969 -10.3550 H              1 <1>                0.0000
    111 H111         4.3809   2.0590 -11.1048 H              1 <1>                0.0000
    112 H112         6.0585   2.0920 -12.9069 H              1 <1>                0.0000
    113 H113         6.1548   0.2458 -14.5333 H              1 <1>                0.0000
    114 H114         4.5739  -1.6338 -14.3572 H              1 <1>                0.0000
    115 H115         2.8992  -1.6691 -12.5523 H              1 <1>                0.0000
@<TRIPOS>BOND
    1    1    2 1     
    2    1   49 1     
    3    1   50 1     
    4    1   51 1     
    5    2    3 1     
    6    2   52 1     
    7    2   53 1     
    8    3    4 1     
    9    3   54 1     
   10    3   55 1     
   11    4    5 1     
   12    4   56 1     
   13    4   57 1     
   14    5    6 1     
   15    5   58 1     
   16    5   59 1     
   17    6    7 1     
   18    6   60 1     
   19    6   61 1     
   20    7    8 1     
   21    7   62 1     
   22    7   63 1     
   23    8    9 1     
   24    8   64 1     
   25    8   65 1     
   26    9   10 1     
   27    9   66 1     
   28    9   67 1     
   29   10   11 1     
   30   10   68 1     
   31   10   69 1     
   32   11   12 1     
   33   11   70 1     
   34   11   71 1     
   35   12   13 1     
   36   12   72 1     
   37   12   73 1     
   38   13   14 1     
   39   13   74 1     
   40   13   75 1     
   41   14   15 1     
   42   14   76 1     
   43   14   77 1     
   44   15   16 1     
   45   15   17 1     
   46   15   78 1     
   47   16   79 1     
   48   17   18 1     
   49   17   19 1     
   50   17   80 1     
   51   18   81 1     
   52   19   20 1     
   53   19   33 1     
   54   19   82 1     
   55   20   21 1     
   56   20   83 1     
   57   20   84 1     
   58   21   22 1     
   59   22   31 1     
   60   22   23 1     
   61   22   85 1     
   62   23   24 1     
   63   24   25 1     
   64   24   27 1     
   65   24   86 1     
   66   25   26 1     
   67   25   87 1     
   68   25   88 1     
   69   26   89 1     
   70   27   28 1     
   71   27   29 1     
   72   27   90 1     
   73   28   91 1     
   74   29   30 1     
   75   29   31 1     
   76   29   92 1     
   77   30   93 1     
   78   31   32 1     
   79   31   94 1     
   80   32   95 1     
   81   33   34 am    
   82   33   96 1     
   83   34   35 2     
   84   34   36 1     
   85   36   37 1     
   86   36   97 1     
   87   36   98 1     
   88   37   38 1     
   89   37   99 1     
   90   37  100 1     
   91   38   39 1     
   92   38  101 1     
   93   38  102 1     
   94   39   40 1     
   95   39  103 1     
   96   39  104 1     
   97   40   41 1     
   98   40  105 1     
   99   40  106 1     
  100   41   42 1     
  101   41  107 1     
  102   41  108 1     
  103   42   43 1     
  104   42  109 1     
  105   42  110 1     
  106   43   48 ar    
  107   43   44 ar    
  108   44   45 ar    
  109   44  111 1     
  110   45   46 ar    
  111   45  112 1     
  112   46   47 ar    
  113   46  113 1     
  114   47   48 ar    
  115   47  114 1     
  116   48  115 1     
@<TRIPOS>SUBSTRUCTURE
      1 ****           1
@<TRIPOS>SET
DONOR_HYDROGENS      STATIC     ATOMS    <user>   **** ""
7 79 81 89 91 93 95 96
ATOM$RED        STATIC     ATOMS    COLORGROUP SYSTEM
7 79 81 89 91 93 95 96
