#       Name:                C9A
#       Creating user name   gbret
#       Creation time:       Fri Sep  9 05:25:01 2016


#       File generated by GOLD software.
#

@<TRIPOS>MOLECULE
C9A
    71    75     1
SMALL
NO_CHARGES


@<TRIPOS>ATOM
      1 C1           2.3287   7.1836   1.6693 C.3            1 <1>                0.0000
      2 N2           2.0772   5.7408   1.5549 N.4            1 <1>                0.0000
      3 H3           1.0824   5.5737   1.5329 H              1 <1>                0.0000
      4 C4           2.6859   5.2346   0.3176 C.3            1 <1>                0.0000
      5 C5           2.4081   3.7353   0.1886 C.3            1 <1>                0.0000
      6 N6           2.9678   3.0343   1.3528 N.3            1 <1>                0.0000
      7 C7           2.3859   3.5479   2.6009 C.3            1 <1>                0.0000
      8 C8           2.6642   5.0487   2.7098 C.3            1 <1>                0.0000
      9 C9           2.7811   1.6584   1.2442 C.ar           1 <1>                0.0000
     10 C10          1.4979   1.1445   1.1478 C.ar           1 <1>                0.0000
     11 C11          1.3096  -0.2280   1.0389 C.ar           1 <1>                0.0000
     12 N12          0.0386  -0.7545   0.9417 N.pl3          1 <1>                0.0000
     13 C13         -1.1037   0.1627   0.9557 C.3            1 <1>                0.0000
     14 C14         -1.3918   0.6277  -0.4485 C.ar           1 <1>                0.0000
     15 C15         -0.8825   1.8325  -0.8958 C.ar           1 <1>                0.0000
     16 C16         -1.1467   2.2590  -2.1839 C.ar           1 <1>                0.0000
     17 C17         -1.9199   1.4807  -3.0248 C.ar           1 <1>                0.0000
     18 C18         -2.4285   0.2755  -2.5778 C.ar           1 <1>                0.0000
     19 C19         -2.1607  -0.1531  -1.2912 C.ar           1 <1>                0.0000
     20 S20         -2.2577   2.0249  -4.6662 S.o2           1 <1>                0.0000
     21 C21         -0.8993   1.3444  -5.6573 C.3            1 <1>                0.0000
     22 O22         -3.4848   1.3909  -5.0001 O.2            1 <1>                0.0000
     23 O23         -2.1608   3.4407  -4.5929 O.2            1 <1>                0.0000
     24 C24         -0.1954  -2.0691   0.8345 C.2            1 <1>                0.0000
     25 C25          0.8250  -2.9977   0.8135 C.2            1 <1>                0.0000
     26 C26          0.5271  -4.4316   0.6941 C.2            1 <1>                0.0000
     27 O27          1.4336  -5.2414   0.6766 O.2            1 <1>                0.0000
     28 O28         -0.7515  -4.8492   0.6041 O.3            1 <1>                0.0000
     29 C29         -0.9712  -6.2799   0.4886 C.3            1 <1>                0.0000
     30 C30         -2.4501  -6.5555   0.3997 C.ar           1 <1>                0.0000
     31 C31         -3.1845  -6.7640   1.5522 C.ar           1 <1>                0.0000
     32 C32         -4.5409  -7.0173   1.4712 C.ar           1 <1>                0.0000
     33 C33         -5.1636  -7.0616   0.2366 C.ar           1 <1>                0.0000
     34 Cl34        -6.8672  -7.3791   0.1342 Cl             1 <1>                0.0000
     35 C35         -4.4281  -6.8524  -0.9164 C.ar           1 <1>                0.0000
     36 C36         -3.0728  -6.5941  -0.8339 C.ar           1 <1>                0.0000
     37 C37          2.2171  -2.5285   0.9121 C.2            1 <1>                0.0000
     38 O38          3.1528  -3.3096   0.8984 O.2            1 <1>                0.0000
     39 C39          2.4320  -1.0766   1.0285 C.ar           1 <1>                0.0000
     40 C40          3.7196  -0.5440   1.1265 C.ar           1 <1>                0.0000
     41 C41          3.8895   0.8078   1.2276 C.ar           1 <1>                0.0000
     42 F42          5.1344   1.3238   1.3224 F              1 <1>                0.0000
     43 H43          3.4034   7.3643   1.6930 H              1 <1>                0.0000
     44 H44          1.8927   7.6975   0.8126 H              1 <1>                0.0000
     45 H45          1.8767   7.5596   2.5871 H              1 <1>                0.0000
     46 H46          2.2591   5.7581  -0.5378 H              1 <1>                0.0000
     47 H47          3.7623   5.4034   0.3468 H              1 <1>                0.0000
     48 H48          1.3319   3.5672   0.1457 H              1 <1>                0.0000
     49 H49          2.8723   3.3564  -0.7219 H              1 <1>                0.0000
     50 H50          1.3094   3.3767   2.5977 H              1 <1>                0.0000
     51 H51          2.8340   3.0323   3.4503 H              1 <1>                0.0000
     52 H52          3.7408   5.2183   2.7267 H              1 <1>                0.0000
     53 H53          2.2212   5.4347   3.6279 H              1 <1>                0.0000
     54 H54          0.6464   1.8088   1.1576 H              1 <1>                0.0000
     55 H55         -1.9779  -0.3519   1.3545 H              1 <1>                0.0000
     56 H56         -0.8711   1.0232   1.5829 H              1 <1>                0.0000
     57 H57         -0.2784   2.4406  -0.2388 H              1 <1>                0.0000
     58 H58         -0.7494   3.2006  -2.5331 H              1 <1>                0.0000
     59 H59         -3.0328  -0.3325  -3.2347 H              1 <1>                0.0000
     60 H60         -2.5580  -1.0947  -0.9420 H              1 <1>                0.0000
     61 H61         -0.9027   0.2572  -5.5804 H              1 <1>                0.0000
     62 H62         -1.0290   1.6353  -6.6998 H              1 <1>                0.0000
     63 H63          0.0499   1.7319  -5.2874 H              1 <1>                0.0000
     64 H64         -1.2164  -2.4135   0.7625 H              1 <1>                0.0000
     65 H65         -0.4776  -6.6519  -0.4092 H              1 <1>                0.0000
     66 H66         -0.5599  -6.7824   1.3640 H              1 <1>                0.0000
     67 H67         -2.6983  -6.7294   2.5159 H              1 <1>                0.0000
     68 H68         -5.1144  -7.1809   2.3716 H              1 <1>                0.0000
     69 H69         -4.9136  -6.8873  -1.8805 H              1 <1>                0.0000
     70 H70         -2.4986  -6.4304  -1.7339 H              1 <1>                0.0000
     71 H71          4.5786  -1.1986   1.1181 H              1 <1>                0.0000
@<TRIPOS>BOND
    1    1    2 1     
    2    1   43 1     
    3    1   44 1     
    4    1   45 1     
    5    2    3 1     
    6    2    8 1     
    7    2    4 1     
    8    4    5 1     
    9    4   46 1     
   10    4   47 1     
   11    5    6 1     
   12    5   48 1     
   13    5   49 1     
   14    6    7 1     
   15    6    9 1     
   16    7    8 1     
   17    7   50 1     
   18    7   51 1     
   19    8   52 1     
   20    8   53 1     
   21    9   41 ar    
   22    9   10 ar    
   23   10   11 ar    
   24   10   54 1     
   25   11   39 ar    
   26   11   12 1     
   27   12   13 1     
   28   12   24 1     
   29   13   14 1     
   30   13   55 1     
   31   13   56 1     
   32   14   19 ar    
   33   14   15 ar    
   34   15   16 ar    
   35   15   57 1     
   36   16   17 ar    
   37   16   58 1     
   38   17   18 ar    
   39   17   20 1     
   40   18   19 ar    
   41   18   59 1     
   42   19   60 1     
   43   20   21 1     
   44   20   22 2     
   45   20   23 2     
   46   21   61 1     
   47   21   62 1     
   48   21   63 1     
   49   24   25 2     
   50   24   64 1     
   51   25   26 1     
   52   25   37 1     
   53   26   27 2     
   54   26   28 1     
   55   28   29 1     
   56   29   30 1     
   57   29   65 1     
   58   29   66 1     
   59   30   36 ar    
   60   30   31 ar    
   61   31   32 ar    
   62   31   67 1     
   63   32   33 ar    
   64   32   68 1     
   65   33   34 1     
   66   33   35 ar    
   67   35   36 ar    
   68   35   69 1     
   69   36   70 1     
   70   37   38 2     
   71   37   39 1     
   72   39   40 ar    
   73   40   41 ar    
   74   40   71 1     
   75   41   42 1     
@<TRIPOS>SUBSTRUCTURE
      1 ****           1
@<TRIPOS>SET
DONOR_HYDROGENS      STATIC     ATOMS    <user>   **** ""
1 3
ATOM$RED        STATIC     ATOMS    COLORGROUP SYSTEM
1 3
