#       Name:                CD2
#       Creating user name   gbret
#       Creation time:       Fri Sep  9 05:31:51 2016


#       File generated by GOLD software.
#

@<TRIPOS>MOLECULE
CD2
    44    47     1
SMALL
NO_CHARGES


@<TRIPOS>ATOM
      1 N1          -0.0478  -3.8430  -5.1801 N.4            1 <1>                0.0000
      2 H2          -0.0341  -4.8519  -5.1857 H              1 <1>                0.0000
      3 H3           0.8988  -3.4937  -5.1873 H              1 <1>                0.0000
      4 H4          -0.5358  -3.5087  -5.9976 H              1 <1>                0.0000
      5 C5          -0.7354  -3.3692  -3.9715 C.3            1 <1>                0.0000
      6 C6           0.0046  -3.8761  -2.7320 C.3            1 <1>                0.0000
      7 N7          -0.6811  -3.4036  -1.5267 N.pl3          1 <1>                0.0000
      8 N8          -0.4353  -2.2967  -0.9236 N.2            1 <1>                0.0000
      9 C9          -1.2157  -2.1526   0.1275 C.2            1 <1>                0.0000
     10 C10         -2.0444  -3.2859   0.2010 C.2            1 <1>                0.0000
     11 C11         -1.6832  -4.0730  -0.8785 C.2            1 <1>                0.0000
     12 C12         -2.2562  -5.3722  -1.2502 C.2            1 <1>                0.0000
     13 O13         -3.1498  -5.8631  -0.5730 O.co2          1 <1>                0.0000
     14 O14         -1.8404  -5.9646  -2.2372 O.co2          1 <1>                0.0000
     15 C15         -1.2192  -1.0021   1.0651 C.ar           1 <1>                0.0000
     16 C16         -2.0960  -0.9670   2.1543 C.ar           1 <1>                0.0000
     17 C17         -2.0708   0.1193   3.0051 C.ar           1 <1>                0.0000
     18 N18         -1.2354   1.1192   2.8055 N.ar           1 <1>                0.0000
     19 C19         -0.3856   1.1300   1.7861 C.ar           1 <1>                0.0000
     20 C20         -0.3441   0.0696   0.8860 C.ar           1 <1>                0.0000
     21 C21          0.5328   2.2809   1.6077 C.ar           1 <1>                0.0000
     22 C22          1.4327   2.3072   0.5301 C.ar           1 <1>                0.0000
     23 N23          2.2539   3.3096   0.3477 N.ar           1 <1>                0.0000
     24 C24          2.2775   4.3583   1.1778 C.ar           1 <1>                0.0000
     25 C25          3.1666   5.4261   0.9652 C.ar           1 <1>                0.0000
     26 C26          3.1722   6.4827   1.8231 C.ar           1 <1>                0.0000
     27 C27          2.3084   6.5270   2.9156 C.ar           1 <1>                0.0000
     28 C28          1.4333   5.5120   3.1550 C.ar           1 <1>                0.0000
     29 C29          1.3994   4.4056   2.2894 C.ar           1 <1>                0.0000
     30 C30          0.5051   3.3417   2.5010 C.ar           1 <1>                0.0000
     31 H31         -0.7502  -2.2793  -3.9655 H              1 <1>                0.0000
     32 H32         -1.7580  -3.7465  -3.9638 H              1 <1>                0.0000
     33 H33          0.0194  -4.9659  -2.7380 H              1 <1>                0.0000
     34 H34          1.0272  -3.4988  -2.7397 H              1 <1>                0.0000
     35 H35         -2.8036  -3.4957   0.9399 H              1 <1>                0.0000
     36 H36         -2.7850  -1.7805   2.3274 H              1 <1>                0.0000
     37 H37         -2.7463   0.1508   3.8473 H              1 <1>                0.0000
     38 H38          0.3484   0.0800   0.0573 H              1 <1>                0.0000
     39 H39          1.4476   1.4805  -0.1646 H              1 <1>                0.0000
     40 H40          3.8435   5.4080   0.1239 H              1 <1>                0.0000
     41 H41          3.8577   7.3001   1.6545 H              1 <1>                0.0000
     42 H42          2.3337   7.3772   3.5812 H              1 <1>                0.0000
     43 H43          0.7690   5.5569   4.0054 H              1 <1>                0.0000
     44 H44         -0.1800   3.3483   3.3358 H              1 <1>                0.0000
@<TRIPOS>BOND
    1    1    2 1     
    2    1    3 1     
    3    1    4 1     
    4    1    5 1     
    5    5    6 1     
    6    5   31 1     
    7    5   32 1     
    8    6    7 1     
    9    6   33 1     
   10    6   34 1     
   11    7   11 1     
   12    7    8 1     
   13    8    9 2     
   14    9   10 1     
   15    9   15 1     
   16   10   11 2     
   17   10   35 1     
   18   11   12 1     
   19   12   13 ar    
   20   12   14 ar    
   21   15   20 ar    
   22   15   16 ar    
   23   16   17 ar    
   24   16   36 1     
   25   17   18 ar    
   26   17   37 1     
   27   18   19 ar    
   28   19   20 ar    
   29   19   21 1     
   30   20   38 1     
   31   21   30 ar    
   32   21   22 ar    
   33   22   23 ar    
   34   22   39 1     
   35   23   24 ar    
   36   24   29 ar    
   37   24   25 ar    
   38   25   26 ar    
   39   25   40 1     
   40   26   27 ar    
   41   26   41 1     
   42   27   28 ar    
   43   27   42 1     
   44   28   29 ar    
   45   28   43 1     
   46   29   30 ar    
   47   30   44 1     
@<TRIPOS>SUBSTRUCTURE
      1 ****           1
@<TRIPOS>SET
DONOR_HYDROGENS      STATIC     ATOMS    <user>   **** ""
3 2 3 4
ATOM$RED        STATIC     ATOMS    COLORGROUP SYSTEM
3 2 3 4
