#       Name:                CHW
#       Creating user name   gbret
#       Creation time:       Fri Sep  9 05:41:46 2016


#       File generated by GOLD software.
#

@<TRIPOS>MOLECULE
CHW
    49    49     1
SMALL
NO_CHARGES


@<TRIPOS>ATOM
      1 C1           5.2870   2.2501   0.1373 C.3            1 <1>                0.0000
      2 C2           5.3375   0.7337   0.3343 C.3            1 <1>                0.0000
      3 O3           5.9664   0.4361   1.5825 O.3            1 <1>                0.0000
      4 C4           3.9358   0.1801   0.3334 C.2            1 <1>                0.0000
      5 C5           2.9743   0.5617   1.4293 C.3            1 <1>                0.0000
      6 C6           3.5532  -0.6328  -0.6199 C.2            1 <1>                0.0000
      7 C7           2.1182  -1.0871  -0.6920 C.3            1 <1>                0.0000
      8 C8           1.5523  -0.7715  -2.0780 C.3            1 <1>                0.0000
      9 C9           0.1172  -1.2258  -2.1501 C.2            1 <1>                0.0000
     10 C10         -0.2038  -2.6552  -2.5034 C.3            1 <1>                0.0000
     11 C11         -0.8512  -0.3782  -1.9056 C.2            1 <1>                0.0000
     12 C12         -2.2779  -0.8602  -1.8484 C.3            1 <1>                0.0000
     13 C13         -2.8966  -0.4441  -0.5388 C.ar           1 <1>                0.0000
     14 C14         -2.8093  -1.2783   0.5665 C.ar           1 <1>                0.0000
     15 O15         -2.1654  -2.4683   0.4649 O.3            1 <1>                0.0000
     16 C16         -3.3791  -0.8999   1.7803 C.ar           1 <1>                0.0000
     17 Cl17        -3.2612  -1.9538   3.1547 Cl             1 <1>                0.0000
     18 C18         -4.0292   0.2952   1.8953 C.ar           1 <1>                0.0000
     19 C19         -4.6421   0.6953   3.2126 C.3            1 <1>                0.0000
     20 C20         -4.1265   1.1504   0.7891 C.ar           1 <1>                0.0000
     21 C21         -4.8226   2.4336   0.9098 C.2            1 <1>                0.0000
     22 O22         -4.9051   3.1717  -0.0497 O.2            1 <1>                0.0000
     23 C23         -3.5475   0.7729  -0.4360 C.ar           1 <1>                0.0000
     24 O24         -3.6354   1.5924  -1.5131 O.3            1 <1>                0.0000
     25 H25          6.3008   2.6505   0.1379 H              1 <1>                0.0000
     26 H26          4.8073   2.4771  -0.8148 H              1 <1>                0.0000
     27 H27          4.7170   2.7031   0.9485 H              1 <1>                0.0000
     28 H28          5.9075   0.2807  -0.4769 H              1 <1>                0.0000
     29 H29          5.5120   0.8087   2.3505 H              1 <1>                0.0000
     30 H30          3.4925   1.1677   2.1726 H              1 <1>                0.0000
     31 H31          2.1489   1.1338   1.0055 H              1 <1>                0.0000
     32 H32          2.5861  -0.3402   1.9024 H              1 <1>                0.0000
     33 H33          4.2663  -0.9774  -1.3542 H              1 <1>                0.0000
     34 H34          2.0678  -2.1615  -0.5150 H              1 <1>                0.0000
     35 H35          1.5336  -0.5662   0.0664 H              1 <1>                0.0000
     36 H36          1.6026   0.3029  -2.2549 H              1 <1>                0.0000
     37 H37          2.1368  -1.2924  -2.8363 H              1 <1>                0.0000
     38 H38          0.7157  -3.1815  -2.7593 H              1 <1>                0.0000
     39 H39         -0.6764  -3.1429  -1.6508 H              1 <1>                0.0000
     40 H40         -0.8830  -2.6750  -3.3557 H              1 <1>                0.0000
     41 H41         -0.6272   0.6661  -1.7449 H              1 <1>                0.0000
     42 H42         -2.8424  -0.4230  -2.6720 H              1 <1>                0.0000
     43 H43         -2.2979  -1.9469  -1.9306 H              1 <1>                0.0000
     44 H44         -1.2214  -2.4235   0.6698 H              1 <1>                0.0000
     45 H45         -3.9086   1.2449   3.8026 H              1 <1>                0.0000
     46 H46         -5.5109   1.3282   3.0318 H              1 <1>                0.0000
     47 H47         -4.9500  -0.1978   3.7562 H              1 <1>                0.0000
     48 H48         -5.2624   2.7228   1.8529 H              1 <1>                0.0000
     49 H49         -2.9052   2.2218  -1.5891 H              1 <1>                0.0000
@<TRIPOS>BOND
    1    1    2 1     
    2    1   25 1     
    3    1   26 1     
    4    1   27 1     
    5    2    3 1     
    6    2    4 1     
    7    2   28 1     
    8    3   29 1     
    9    4    5 1     
   10    4    6 2     
   11    5   30 1     
   12    5   31 1     
   13    5   32 1     
   14    6    7 1     
   15    6   33 1     
   16    7    8 1     
   17    7   34 1     
   18    7   35 1     
   19    8    9 1     
   20    8   36 1     
   21    8   37 1     
   22    9   10 1     
   23    9   11 2     
   24   10   38 1     
   25   10   39 1     
   26   10   40 1     
   27   11   12 1     
   28   11   41 1     
   29   12   13 1     
   30   12   42 1     
   31   12   43 1     
   32   13   23 ar    
   33   13   14 ar    
   34   14   15 1     
   35   14   16 ar    
   36   15   44 1     
   37   16   17 1     
   38   16   18 ar    
   39   18   19 1     
   40   18   20 ar    
   41   19   45 1     
   42   19   46 1     
   43   19   47 1     
   44   20   21 1     
   45   20   23 ar    
   46   21   22 2     
   47   21   48 1     
   48   23   24 1     
   49   24   49 1     
@<TRIPOS>SUBSTRUCTURE
      1 ****           1
@<TRIPOS>SET
DONOR_HYDROGENS      STATIC     ATOMS    <user>   **** ""
3 29 44 49
ATOM$RED        STATIC     ATOMS    COLORGROUP SYSTEM
3 29 44 49
