#       Name:                CIW
#       Creating user name   gbret
#       Creation time:       Fri Sep  9 05:43:36 2016


#       File generated by GOLD software.
#

@<TRIPOS>MOLECULE
CIW
    35    38     1
SMALL
NO_CHARGES


@<TRIPOS>ATOM
      1 O1           0.3462  -0.8316  -3.5048 O.co2          1 <1>                0.0000
      2 C2           0.3123   0.3913  -3.4991 C.2            1 <1>                0.0000
      3 O3           0.1103   1.0025  -4.5395 O.co2          1 <1>                0.0000
      4 C4           0.5086   1.1270  -2.2397 C.ar           1 <1>                0.0000
      5 C5           0.5828   2.5264  -2.2456 C.ar           1 <1>                0.0000
      6 O6           0.5054   3.4315  -3.2597 O.3            1 <1>                0.0000
      7 C7           0.2357   4.6967  -2.6274 C.3            1 <1>                0.0000
      8 O8           0.8064   4.5505  -1.3136 O.3            1 <1>                0.0000
      9 C9           0.7681   3.2118  -1.0475 C.ar           1 <1>                0.0000
     10 C10          0.8785   2.5091   0.1403 C.ar           1 <1>                0.0000
     11 C11          0.8059   1.1256   0.1461 C.ar           1 <1>                0.0000
     12 C12          0.6164   0.4332  -1.0291 C.ar           1 <1>                0.0000
     13 C13          0.5385  -1.0717  -1.0133 C.3            1 <1>                0.0000
     14 N14          0.5849  -1.5486   0.3712 N.am           1 <1>                0.0000
     15 C15          1.7235  -1.7674   1.0503 C.2            1 <1>                0.0000
     16 O16          2.8519  -1.6089   0.6349 O.2            1 <1>                0.0000
     17 C17          1.3329  -2.2484   2.4316 C.3            1 <1>                0.0000
     18 C18         -0.1781  -2.2589   2.4037 C.ar           1 <1>                0.0000
     19 C19         -1.1295  -2.5944   3.3407 C.ar           1 <1>                0.0000
     20 C20         -2.4743  -2.5027   3.0227 C.ar           1 <1>                0.0000
     21 Cl21        -3.6781  -2.9239   4.2005 Cl             1 <1>                0.0000
     22 C22         -2.8556  -2.0739   1.7633 C.ar           1 <1>                0.0000
     23 C23         -1.9037  -1.7379   0.8233 C.ar           1 <1>                0.0000
     24 C24         -0.5487  -1.8221   1.1383 C.ar           1 <1>                0.0000
     25 H25          0.7234   5.5072  -3.1689 H              1 <1>                0.0000
     26 H26         -0.8383   4.8706  -2.5613 H              1 <1>                0.0000
     27 H27          1.0226   3.0428   1.0681 H              1 <1>                0.0000
     28 H28          0.8933   0.5873   1.0783 H              1 <1>                0.0000
     29 H29         -0.3945  -1.3922  -1.4769 H              1 <1>                0.0000
     30 H30          1.3807  -1.4850  -1.5683 H              1 <1>                0.0000
     31 H31          1.7186  -3.2523   2.6096 H              1 <1>                0.0000
     32 H32          1.6960  -1.5583   3.1932 H              1 <1>                0.0000
     33 H33         -0.8274  -2.9288   4.3222 H              1 <1>                0.0000
     34 H34         -3.9043  -2.0023   1.5149 H              1 <1>                0.0000
     35 H35         -2.2091  -1.4045  -0.1575 H              1 <1>                0.0000
@<TRIPOS>BOND
    1    1    2 ar    
    2    2    3 ar    
    3    2    4 1     
    4    4   12 ar    
    5    4    5 ar    
    6    5    9 ar    
    7    5    6 1     
    8    6    7 1     
    9    7    8 1     
   10    7   25 1     
   11    7   26 1     
   12    8    9 1     
   13    9   10 ar    
   14   10   11 ar    
   15   10   27 1     
   16   11   12 ar    
   17   11   28 1     
   18   12   13 1     
   19   13   14 1     
   20   13   29 1     
   21   13   30 1     
   22   14   24 1     
   23   14   15 am    
   24   15   16 2     
   25   15   17 1     
   26   17   18 1     
   27   17   31 1     
   28   17   32 1     
   29   18   24 ar    
   30   18   19 ar    
   31   19   20 ar    
   32   19   33 1     
   33   20   21 1     
   34   20   22 ar    
   35   22   23 ar    
   36   22   34 1     
   37   23   24 ar    
   38   23   35 1     
@<TRIPOS>SUBSTRUCTURE
      1 ****           1
