#       Name:                CJO
#       Creating user name   gbret
#       Creation time:       Fri Sep  9 05:44:03 2016


#       File generated by GOLD software.
#

@<TRIPOS>MOLECULE
CJO
    44    45     1
SMALL
NO_CHARGES


@<TRIPOS>ATOM
      1 C1           0.6493   3.8760   1.4196 C.3            1 <1>                0.0000
      2 C2           0.6559   2.3463   1.3881 C.3            1 <1>                0.0000
      3 O3          -0.6888   1.8650   1.3436 O.3            1 <1>                0.0000
      4 C4           1.4112   1.8649   0.1476 C.3            1 <1>                0.0000
      5 N5           2.7492   2.4707   0.1232 N.3            1 <1>                0.0000
      6 C6           1.5418   0.3411   0.1894 C.3            1 <1>                0.0000
      7 N7           0.2002  -0.2843   0.2268 N.4            1 <1>                0.0000
      8 H8          -0.0714  -0.4881   1.1770 H              1 <1>                0.0000
      9 H9          -0.4824   0.3104  -0.2187 H              1 <1>                0.0000
     10 C10          0.3902  -1.5366  -0.5433 C.3            1 <1>                0.0000
     11 C11         -0.8748  -1.8716  -1.3361 C.3            1 <1>                0.0000
     12 C12         -2.0017  -2.1705  -0.3812 C.ar           1 <1>                0.0000
     13 C13         -2.2074  -3.4645   0.0601 C.ar           1 <1>                0.0000
     14 C14         -3.2398  -3.7410   0.9355 C.ar           1 <1>                0.0000
     15 C15         -4.0702  -2.7190   1.3718 C.ar           1 <1>                0.0000
     16 O16         -5.0862  -2.9884   2.2332 O.3            1 <1>                0.0000
     17 C17         -3.8614  -1.4213   0.9277 C.ar           1 <1>                0.0000
     18 C18         -2.8247  -1.1492   0.0562 C.ar           1 <1>                0.0000
     19 C19          1.5384  -1.2409  -1.4832 C.2            1 <1>                0.0000
     20 O20          1.8288  -1.8823  -2.4708 O.2            1 <1>                0.0000
     21 N21          2.1847  -0.1444  -1.0377 N.am           1 <1>                0.0000
     22 C22          3.3497   0.4687  -1.6804 C.3            1 <1>                0.0000
     23 C23          2.8890   1.4035  -2.7690 C.2            1 <1>                0.0000
     24 O24          1.6982   1.6063  -2.9348 O.co2          1 <1>                0.0000
     25 O25          3.7070   1.9570  -3.4839 O.co2          1 <1>                0.0000
     26 H26          0.1113   4.2189   2.3034 H              1 <1>                0.0000
     27 H27          1.6751   4.2431   1.4535 H              1 <1>                0.0000
     28 H28          0.1569   4.2557   0.5243 H              1 <1>                0.0000
     29 H29          1.1483   1.9666   2.2833 H              1 <1>                0.0000
     30 H30         -1.1883   2.1641   0.5716 H              1 <1>                0.0000
     31 H31          0.8632   2.1582  -0.7479 H              1 <1>                0.0000
     32 H32          2.6899   3.4772   0.0851 H              1 <1>                0.0000
     33 H33          3.2965   2.1705   0.9161 H              1 <1>                0.0000
     34 H34          2.1219   0.0387   1.0615 H              1 <1>                0.0000
     35 H35          0.6468  -2.3582   0.1254 H              1 <1>                0.0000
     36 H36         -1.1457  -1.0226  -1.9637 H              1 <1>                0.0000
     37 H37         -0.6898  -2.7432  -1.9641 H              1 <1>                0.0000
     38 H38         -1.5607  -4.2598  -0.2798 H              1 <1>                0.0000
     39 H39         -3.4005  -4.7521   1.2795 H              1 <1>                0.0000
     40 H40         -4.8400  -2.9192   3.1658 H              1 <1>                0.0000
     41 H41         -4.5067  -0.6240   1.2658 H              1 <1>                0.0000
     42 H42         -2.6615  -0.1391  -0.2895 H              1 <1>                0.0000
     43 H43          3.9213   1.0275  -0.9394 H              1 <1>                0.0000
     44 H44          3.9783  -0.3101  -2.1122 H              1 <1>                0.0000
@<TRIPOS>BOND
    1    1    2 1     
    2    1   26 1     
    3    1   27 1     
    4    1   28 1     
    5    2    3 1     
    6    2    4 1     
    7    2   29 1     
    8    3   30 1     
    9    4    5 1     
   10    4    6 1     
   11    4   31 1     
   12    5   32 1     
   13    5   33 1     
   14    6   21 1     
   15    6    7 1     
   16    6   34 1     
   17    7    8 1     
   18    7    9 1     
   19    7   10 1     
   20   10   11 1     
   21   10   19 1     
   22   10   35 1     
   23   11   12 1     
   24   11   36 1     
   25   11   37 1     
   26   12   18 ar    
   27   12   13 ar    
   28   13   14 ar    
   29   13   38 1     
   30   14   15 ar    
   31   14   39 1     
   32   15   16 1     
   33   15   17 ar    
   34   16   40 1     
   35   17   18 ar    
   36   17   41 1     
   37   18   42 1     
   38   19   20 2     
   39   19   21 am    
   40   21   22 1     
   41   22   23 1     
   42   22   43 1     
   43   22   44 1     
   44   23   24 ar    
   45   23   25 ar    
@<TRIPOS>SUBSTRUCTURE
      1 ****           1
@<TRIPOS>SET
DONOR_HYDROGENS      STATIC     ATOMS    <user>   **** ""
6 30 32 33 8 9 40
ATOM$RED        STATIC     ATOMS    COLORGROUP SYSTEM
6 30 32 33 8 9 40
