#       Name:                CMS
#       Creating user name   gbret
#       Creation time:       Fri Sep  9 05:49:12 2016


#       File generated by GOLD software.
#

@<TRIPOS>MOLECULE
CMS
    16    15     1
SMALL
NO_CHARGES


@<TRIPOS>ATOM
      1 C1           0.2536   1.5212   0.0232 C.3            1 <1>                0.0000
      2 N2           0.2735   0.0563   0.0151 N.am           1 <1>                0.0000
      3 C3           0.2955  -0.6829   1.2797 C.3            1 <1>                0.0000
      4 C4          -1.1175  -0.9557   1.7268 C.2            1 <1>                0.0000
      5 O5          -2.0560  -0.5685   1.0517 O.co2          1 <1>                0.0000
      6 O6          -1.3223  -1.5636   2.7637 O.co2          1 <1>                0.0000
      7 C7           0.2715  -0.6112  -1.1557 C.2            1 <1>                0.0000
      8 N8           0.2512   0.0689  -2.3191 N.am           1 <1>                0.0000
      9 O9           0.2880  -1.8269  -1.1624 O.2            1 <1>                0.0000
     10 H10          1.2762   1.8985   0.0154 H              1 <1>                0.0000
     11 H11         -0.2736   1.8823  -0.8599 H              1 <1>                0.0000
     12 H12         -0.2566   1.8727   0.9200 H              1 <1>                0.0000
     13 H13          0.8210  -1.6275   1.1393 H              1 <1>                0.0000
     14 H14          0.8085  -0.0910   2.0377 H              1 <1>                0.0000
     15 H15          0.2498  -0.4115  -3.1618 H              1 <1>                0.0000
     16 H16          0.2380   1.0389  -2.3137 H              1 <1>                0.0000
@<TRIPOS>BOND
    1    1    2 1     
    2    1   10 1     
    3    1   11 1     
    4    1   12 1     
    5    2    3 1     
    6    2    7 am    
    7    3    4 1     
    8    3   13 1     
    9    3   14 1     
   10    4    5 ar    
   11    4    6 ar    
   12    7    8 am    
   13    7    9 2     
   14    8   15 1     
   15    8   16 1     
@<TRIPOS>SUBSTRUCTURE
      1 ****           1
@<TRIPOS>SET
DONOR_HYDROGENS      STATIC     ATOMS    <user>   **** ""
2 15 16
ATOM$RED        STATIC     ATOMS    COLORGROUP SYSTEM
2 15 16
