#       Name:                CNP
#       Creating user name   gbret
#       Creation time:       Fri Sep  9 05:50:55 2016


#       File generated by GOLD software.
#

@<TRIPOS>MOLECULE
CNP
    45    45     1
SMALL
NO_CHARGES


@<TRIPOS>ATOM
      1 C1           2.8623   3.5970   0.0684 C.3            1 <1>                0.0000
      2 C2           2.8828   2.0901   0.0601 C.2            1 <1>                0.0000
      3 O3           3.9412   1.4981   0.0468 O.2            1 <1>                0.0000
      4 N4           1.7249   1.4004   0.0675 N.am           1 <1>                0.0000
      5 C5           1.7447  -0.0644   0.0594 C.3            1 <1>                0.0000
      6 C6           1.8833  -0.5824   1.4943 C.3            1 <1>                0.0000
      7 O7           3.0634  -0.0369   2.0875 O.3            1 <1>                0.0000
      8 C8           0.6564  -0.1492   2.3025 C.3            1 <1>                0.0000
      9 C9          -0.6080  -0.6720   1.6157 C.3            1 <1>                0.0000
     10 C10         -1.8413  -0.1927   2.3840 C.3            1 <1>                0.0000
     11 C11         -3.0785  -0.8069   1.7814 C.2            1 <1>                0.0000
     12 C12         -3.9055  -1.4879   2.5353 C.2            1 <1>                0.0000
     13 O13         -0.6595  -0.1780   0.2757 O.3            1 <1>                0.0000
     14 C14          0.4383  -0.5905  -0.5408 C.3            1 <1>                0.0000
     15 C15          0.2631  -0.0288  -1.9531 C.3            1 <1>                0.0000
     16 O16          1.3610  -0.4414  -2.7694 O.3            1 <1>                0.0000
     17 C17         -1.0433  -0.5535  -2.5522 C.3            1 <1>                0.0000
     18 O18         -2.1412  -0.1410  -1.7359 O.3            1 <1>                0.0000
     19 C19         -1.2186   0.0081  -3.9645 C.3            1 <1>                0.0000
     20 O20         -2.3769  -0.5720  -4.5675 O.3            1 <1>                0.0000
     21 C21         -0.5826  -2.1786   1.5955 C.2            1 <1>                0.0000
     22 O22         -0.5373  -2.8016   2.6426 O.co2          1 <1>                0.0000
     23 O23         -0.6073  -2.7746   0.5322 O.co2          1 <1>                0.0000
     24 H24          3.8849   3.9743   0.0607 H              1 <1>                0.0000
     25 H25          2.3352   3.9581  -0.8147 H              1 <1>                0.0000
     26 H26          2.3521   3.9485   0.9652 H              1 <1>                0.0000
     27 H27          0.8784   1.8739   0.0781 H              1 <1>                0.0000
     28 H28          2.5868  -0.4140  -0.5380 H              1 <1>                0.0000
     29 H29          1.9496  -1.6703   1.4844 H              1 <1>                0.0000
     30 H30          3.2141  -0.3235   2.9987 H              1 <1>                0.0000
     31 H31          0.7201  -0.5603   3.3100 H              1 <1>                0.0000
     32 H32          0.6196   0.9390   2.3538 H              1 <1>                0.0000
     33 H33         -1.7582  -0.4933   3.4284 H              1 <1>                0.0000
     34 H34         -1.9081   0.8935   2.3227 H              1 <1>                0.0000
     35 H35         -3.2834  -0.6855   0.7279 H              1 <1>                0.0000
     36 H36         -3.7006  -1.6092   3.5887 H              1 <1>                0.0000
     37 H37         -4.7922  -1.9280   2.1034 H              1 <1>                0.0000
     38 H38          0.4705  -1.6792  -0.5838 H              1 <1>                0.0000
     39 H39          0.2315   1.0599  -1.9098 H              1 <1>                0.0000
     40 H40          1.4504  -1.4006  -2.8529 H              1 <1>                0.0000
     41 H41         -1.0117  -1.6422  -2.5955 H              1 <1>                0.0000
     42 H42         -2.2306   0.8183  -1.6524 H              1 <1>                0.0000
     43 H43         -1.3392   1.0902  -3.9128 H              1 <1>                0.0000
     44 H44         -0.3392  -0.2313  -4.5625 H              1 <1>                0.0000
     45 H45         -2.5499  -0.2609  -5.4666 H              1 <1>                0.0000
@<TRIPOS>BOND
    1    1    2 1     
    2    1   24 1     
    3    1   25 1     
    4    1   26 1     
    5    2    3 2     
    6    2    4 am    
    7    4    5 1     
    8    4   27 1     
    9    5   14 1     
   10    5    6 1     
   11    5   28 1     
   12    6    7 1     
   13    6    8 1     
   14    6   29 1     
   15    7   30 1     
   16    8    9 1     
   17    8   31 1     
   18    8   32 1     
   19    9   10 1     
   20    9   13 1     
   21    9   21 1     
   22   10   11 1     
   23   10   33 1     
   24   10   34 1     
   25   11   12 2     
   26   11   35 1     
   27   12   36 1     
   28   12   37 1     
   29   13   14 1     
   30   14   15 1     
   31   14   38 1     
   32   15   16 1     
   33   15   17 1     
   34   15   39 1     
   35   16   40 1     
   36   17   18 1     
   37   17   19 1     
   38   17   41 1     
   39   18   42 1     
   40   19   20 1     
   41   19   43 1     
   42   19   44 1     
   43   20   45 1     
   44   21   22 ar    
   45   21   23 ar    
@<TRIPOS>SUBSTRUCTURE
      1 ****           1
@<TRIPOS>SET
DONOR_HYDROGENS      STATIC     ATOMS    <user>   **** ""
5 27 30 40 42 45
ATOM$RED        STATIC     ATOMS    COLORGROUP SYSTEM
5 27 30 40 42 45
