#       Name:                CO7
#       Creating user name   gbret
#       Creation time:       Fri Sep  9 05:51:50 2016


#       File generated by GOLD software.
#

@<TRIPOS>MOLECULE
CO7
    89    91     1
SMALL
NO_CHARGES


@<TRIPOS>ATOM
      1 C1           3.0489   8.8430 -13.5972 C.3            1 <1>                0.0000
      2 C2           2.5572   7.6893 -12.7615 C.2            1 <1>                0.0000
      3 C3           1.7788   7.9159 -11.7075 C.2            1 <1>                0.0000
      4 C4           1.2988   6.7898 -10.8918 C.2            1 <1>                0.0000
      5 O5           1.6141   5.6510 -11.1816 O.2            1 <1>                0.0000
      6 S6           0.2674   7.0902  -9.4952 S.3            1 <1>                0.0000
      7 C7           0.0143   5.3926  -8.9205 C.3            1 <1>                0.0000
      8 C8          -0.8789   5.4025  -7.6784 C.3            1 <1>                0.0000
      9 N9          -1.0837   4.0285  -7.2132 N.am           1 <1>                0.0000
     10 C10         -1.8430   3.7915  -6.1252 C.2            1 <1>                0.0000
     11 O11         -2.3566   4.7158  -5.5311 O.2            1 <1>                0.0000
     12 C12         -2.0537   2.3781  -5.6467 C.3            1 <1>                0.0000
     13 C13         -2.9469   2.3881  -4.4045 C.3            1 <1>                0.0000
     14 N14         -3.1518   1.0140  -3.9394 N.am           1 <1>                0.0000
     15 C15         -3.9110   0.7771  -2.8513 C.2            1 <1>                0.0000
     16 O16         -4.3495   1.7044  -2.2042 O.2            1 <1>                0.0000
     17 C17         -4.2152  -0.6401  -2.4389 C.3            1 <1>                0.0000
     18 O18         -3.7224  -1.5415  -3.4322 O.3            1 <1>                0.0000
     19 C19         -3.5384  -0.9378  -1.0994 C.3            1 <1>                0.0000
     20 C20         -2.0423  -0.6359  -1.2056 C.3            1 <1>                0.0000
     21 C21         -4.1592  -0.0626  -0.0087 C.3            1 <1>                0.0000
     22 C22         -3.7371  -2.4127  -0.7443 C.3            1 <1>                0.0000
     23 O23         -3.1051  -2.6908   0.5068 O.3            1 <1>                0.0000
     24 P24         -3.1144  -4.1491   1.1890 P.3            1 <1>                0.0000
     25 O25         -4.5628  -4.5319   1.5663 O.co2          1 <1>                0.0000
     26 O26         -2.5501  -5.1870   0.1933 O.co2          1 <1>                0.0000
     27 O27         -2.2022  -4.1269   2.5155 O.3            1 <1>                0.0000
     28 P28         -1.4772  -5.2652   3.3934 P.3            1 <1>                0.0000
     29 O29         -2.5324  -6.0153   4.2366 O.co2          1 <1>                0.0000
     30 O30         -0.7638  -6.2635   2.4545 O.co2          1 <1>                0.0000
     31 O31         -0.3961  -4.5816   4.3711 O.3            1 <1>                0.0000
     32 C32          0.4865  -5.3360   5.2042 C.3            1 <1>                0.0000
     33 C33          1.3779  -4.3804   5.9999 C.3            1 <1>                0.0000
     34 O34          0.5994  -3.6735   6.9898 O.3            1 <1>                0.0000
     35 C35          1.5564  -3.2120   7.9681 C.3            1 <1>                0.0000
     36 C36          2.5448  -4.3870   8.1381 C.3            1 <1>                0.0000
     37 O37          2.1620  -5.2073   9.2439 O.3            1 <1>                0.0000
     38 P38          3.1119  -5.4590  10.5192 P.3            1 <1>                0.0000
     39 O39          3.3258  -4.1094  11.2855 O.co2          1 <1>                0.0000
     40 O40          2.4374  -6.5010  11.4751 O.co2          1 <1>                0.0000
     41 O41          4.4967  -6.0115  10.0380 O.co2          1 <1>                0.0000
     42 C42          2.4247  -5.1733   6.8135 C.3            1 <1>                0.0000
     43 O43          1.9640  -6.5032   7.0608 O.3            1 <1>                0.0000
     44 N44          2.2569  -2.0235   7.4751 N.pl3          1 <1>                0.0000
     45 C45          2.3413  -1.6177   6.1765 C.2            1 <1>                0.0000
     46 N46          3.0388  -0.5218   6.0977 N.2            1 <1>                0.0000
     47 C47          3.4450  -0.1559   7.3371 C.ar           1 <1>                0.0000
     48 C48          4.2041   0.9078   7.8545 C.ar           1 <1>                0.0000
     49 N49          4.7191   1.8827   7.0181 N.pl3          1 <1>                0.0000
     50 N50          4.4155   0.9559   9.1655 N.ar           1 <1>                0.0000
     51 C51          3.9276   0.0302   9.9713 C.ar           1 <1>                0.0000
     52 N52          3.2118  -0.9831   9.5318 N.ar           1 <1>                0.0000
     53 C53          2.9434  -1.1116   8.2364 C.ar           1 <1>                0.0000
     54 H54          2.1962   9.3816 -14.0105 H              1 <1>                0.0000
     55 H55          3.6377   9.5172 -12.9751 H              1 <1>                0.0000
     56 H56          3.6685   8.4646 -14.4102 H              1 <1>                0.0000
     57 H57          2.8371   6.6784 -13.0188 H              1 <1>                0.0000
     58 H58          1.4990   8.9269 -11.4503 H              1 <1>                0.0000
     59 H59         -0.4645   4.8101  -9.7077 H              1 <1>                0.0000
     60 H60          0.9770   4.9457  -8.6723 H              1 <1>                0.0000
     61 H61         -0.4001   5.9850  -6.8912 H              1 <1>                0.0000
     62 H62         -1.8416   5.8494  -7.9266 H              1 <1>                0.0000
     63 H63         -0.6730   3.2893  -7.6883 H              1 <1>                0.0000
     64 H64         -2.5325   1.7957  -6.4338 H              1 <1>                0.0000
     65 H65         -1.0910   1.9312  -5.3984 H              1 <1>                0.0000
     66 H66         -2.4681   2.9705  -3.6174 H              1 <1>                0.0000
     67 H67         -3.9096   2.8349  -4.6528 H              1 <1>                0.0000
     68 H68         -2.7410   0.2748  -4.4145 H              1 <1>                0.0000
     69 H69         -5.2932  -0.7655  -2.3371 H              1 <1>                0.0000
     70 H70         -2.7679  -1.4848  -3.5760 H              1 <1>                0.0000
     71 H71         -1.9008   0.4148  -1.4586 H              1 <1>                0.0000
     72 H72         -1.5602  -0.8480  -0.2513 H              1 <1>                0.0000
     73 H73         -1.6001  -1.2594  -1.9826 H              1 <1>                0.0000
     74 H74         -5.2414  -0.1927  -0.0105 H              1 <1>                0.0000
     75 H75         -3.7597  -0.3545   0.9626 H              1 <1>                0.0000
     76 H76         -3.9186   0.9830  -0.2012 H              1 <1>                0.0000
     77 H77         -4.8030  -2.6278  -0.6686 H              1 <1>                0.0000
     78 H78         -3.2949  -3.0363  -1.5213 H              1 <1>                0.0000
     79 H79         -0.0972  -5.9467   5.8929 H              1 <1>                0.0000
     80 H80          1.1085  -5.9814   4.5840 H              1 <1>                0.0000
     81 H81          1.8718  -3.6767   5.3298 H              1 <1>                0.0000
     82 H82          1.0584  -2.9952   8.9132 H              1 <1>                0.0000
     83 H83          3.5605  -4.0152   8.2733 H              1 <1>                0.0000
     84 H84          3.3813  -5.1903   6.2914 H              1 <1>                0.0000
     85 H85          1.8705  -7.0417   6.2630 H              1 <1>                0.0000
     86 H86          1.8957  -2.1303   5.3368 H              1 <1>                0.0000
     87 H87          4.5576   1.8367   6.0627 H              1 <1>                0.0000
     88 H88          5.2414   2.6119   7.3872 H              1 <1>                0.0000
     89 H89          4.1237   0.1074  11.0306 H              1 <1>                0.0000
@<TRIPOS>BOND
    1    1    2 1     
    2    1   54 1     
    3    1   55 1     
    4    1   56 1     
    5    2    3 2     
    6    2   57 1     
    7    3    4 1     
    8    3   58 1     
    9    4    5 2     
   10    4    6 1     
   11    6    7 1     
   12    7    8 1     
   13    7   59 1     
   14    7   60 1     
   15    8    9 1     
   16    8   61 1     
   17    8   62 1     
   18    9   10 am    
   19    9   63 1     
   20   10   11 2     
   21   10   12 1     
   22   12   13 1     
   23   12   64 1     
   24   12   65 1     
   25   13   14 1     
   26   13   66 1     
   27   13   67 1     
   28   14   15 am    
   29   14   68 1     
   30   15   16 2     
   31   15   17 1     
   32   17   18 1     
   33   17   19 1     
   34   17   69 1     
   35   18   70 1     
   36   19   20 1     
   37   19   21 1     
   38   19   22 1     
   39   20   71 1     
   40   20   72 1     
   41   20   73 1     
   42   21   74 1     
   43   21   75 1     
   44   21   76 1     
   45   22   23 1     
   46   22   77 1     
   47   22   78 1     
   48   23   24 1     
   49   24   25 ar    
   50   24   26 ar    
   51   24   27 1     
   52   27   28 1     
   53   28   29 ar    
   54   28   30 ar    
   55   28   31 1     
   56   31   32 1     
   57   32   33 1     
   58   32   79 1     
   59   32   80 1     
   60   33   42 1     
   61   33   34 1     
   62   33   81 1     
   63   34   35 1     
   64   35   36 1     
   65   35   44 1     
   66   35   82 1     
   67   36   37 1     
   68   36   42 1     
   69   36   83 1     
   70   37   38 1     
   71   38   39 ar    
   72   38   40 ar    
   73   38   41 ar    
   74   42   43 1     
   75   42   84 1     
   76   43   85 1     
   77   44   53 1     
   78   44   45 1     
   79   45   46 2     
   80   45   86 1     
   81   46   47 1     
   82   47   53 ar    
   83   47   48 ar    
   84   48   49 1     
   85   48   50 ar    
   86   49   87 1     
   87   49   88 1     
   88   50   51 ar    
   89   51   52 ar    
   90   51   89 1     
   91   52   53 ar    
@<TRIPOS>SUBSTRUCTURE
      1 ****           1
@<TRIPOS>SET
DONOR_HYDROGENS      STATIC     ATOMS    <user>   **** ""
6 63 68 70 85 87 88
ATOM$RED        STATIC     ATOMS    COLORGROUP SYSTEM
6 63 68 70 85 87 88
