#       Name:                COK
#       Creating user name   gbret
#       Creation time:       Fri Sep  9 05:52:45 2016


#       File generated by GOLD software.
#

@<TRIPOS>MOLECULE
COK
    88    90     1
SMALL
NO_CHARGES


@<TRIPOS>ATOM
      1 C1           2.3210  -1.7225  -1.9553 C.3            1 <1>                0.0000
      2 C2           2.2728  -3.2306  -1.7016 C.3            1 <1>                0.0000
      3 C3           3.1074  -3.5665  -0.4641 C.3            1 <1>                0.0000
      4 C4           0.8233  -3.6630  -1.4720 C.3            1 <1>                0.0000
      5 O5           0.2940  -2.9722  -0.3385 O.3            1 <1>                0.0000
      6 P6          -1.2108  -3.1839   0.1933 P.3            1 <1>                0.0000
      7 O7          -2.2095  -2.6847  -0.8746 O.co2          1 <1>                0.0000
      8 O8          -1.4547  -4.6852   0.4647 O.co2          1 <1>                0.0000
      9 O9          -1.4208  -2.3514   1.5552 O.3            1 <1>                0.0000
     10 P10         -2.4769  -2.4379   2.7674 P.3            1 <1>                0.0000
     11 O11         -3.8356  -1.8629   2.3087 O.co2          1 <1>                0.0000
     12 O12         -2.6578  -3.9133   3.1885 O.co2          1 <1>                0.0000
     13 O13         -1.9285  -1.5860   4.0187 O.3            1 <1>                0.0000
     14 C14         -2.5891  -1.5505   5.2854 C.3            1 <1>                0.0000
     15 C15         -1.8060  -0.6511   6.2439 C.3            1 <1>                0.0000
     16 O16         -1.9126   0.7306   5.8370 O.3            1 <1>                0.0000
     17 C17         -1.5943   1.5003   7.0169 C.3            1 <1>                0.0000
     18 C18         -2.2890   0.7517   8.1759 C.3            1 <1>                0.0000
     19 O19         -3.5743   1.3181   8.4387 O.3            1 <1>                0.0000
     20 C20         -2.4315  -0.6962   7.6557 C.3            1 <1>                0.0000
     21 O21         -3.8092  -1.0682   7.5813 O.3            1 <1>                0.0000
     22 P22         -4.4220  -2.3261   8.3776 P.3            1 <1>                0.0000
     23 O23         -4.3280  -2.0643   9.9194 O.co2          1 <1>                0.0000
     24 O24         -5.9226  -2.5205   7.9715 O.co2          1 <1>                0.0000
     25 O25         -3.6119  -3.6176   8.0168 O.co2          1 <1>                0.0000
     26 N26         -0.1449   1.5344   7.2279 N.pl3          1 <1>                0.0000
     27 C27          0.7702   0.6860   6.6792 C.2            1 <1>                0.0000
     28 N28          1.9669   1.0034   7.0801 N.2            1 <1>                0.0000
     29 C29          1.8960   2.0724   7.9092 C.ar           1 <1>                0.0000
     30 C30          2.8370   2.8321   8.6252 C.ar           1 <1>                0.0000
     31 N31          4.1863   2.5315   8.5605 N.pl3          1 <1>                0.0000
     32 N32          2.4011   3.8459   9.3653 N.ar           1 <1>                0.0000
     33 C33          1.1153   4.1404   9.4326 C.ar           1 <1>                0.0000
     34 N34          0.1990   3.4573   8.7798 N.ar           1 <1>                0.0000
     35 C35          0.5409   2.4296   8.0092 C.ar           1 <1>                0.0000
     36 C36          2.8395  -3.9702  -2.9152 C.3            1 <1>                0.0000
     37 O37          2.7138  -5.3796  -2.7154 O.3            1 <1>                0.0000
     38 C38          2.0758  -3.5679  -4.1504 C.2            1 <1>                0.0000
     39 O39          1.3016  -4.3467  -4.6652 O.2            1 <1>                0.0000
     40 N40          2.2530  -2.3426  -4.6831 N.am           1 <1>                0.0000
     41 C41          1.4350  -1.9127  -5.8198 C.3            1 <1>                0.0000
     42 C42          1.8344  -0.4931  -6.2276 C.3            1 <1>                0.0000
     43 C43          0.9929  -0.0509  -7.3969 C.2            1 <1>                0.0000
     44 O44          0.1561  -0.7976  -7.8587 O.2            1 <1>                0.0000
     45 N45          1.1701   1.1744  -7.9296 N.am           1 <1>                0.0000
     46 C46          0.3521   1.6043  -9.0663 C.3            1 <1>                0.0000
     47 C47          0.7515   3.0239  -9.4741 C.3            1 <1>                0.0000
     48 S48         -0.2615   3.5562 -10.8817 S.3            1 <1>                0.0000
     49 S49         -2.1205   3.7896 -10.0498 S.3            1 <1>                0.0000
     50 C50         -2.0597   5.4748  -9.3811 C.3            1 <1>                0.0000
     51 C51         -2.0456   6.4807 -10.5339 C.3            1 <1>                0.0000
     52 O52         -1.9977   7.8082 -10.0071 O.3            1 <1>                0.0000
     53 H53          3.3578  -1.4061  -2.0690 H              1 <1>                0.0000
     54 H54          1.7681  -1.4893  -2.8653 H              1 <1>                0.0000
     55 H55          1.8713  -1.1977  -1.1124 H              1 <1>                0.0000
     56 H56          2.6534  -3.1097   0.4153 H              1 <1>                0.0000
     57 H57          3.1445  -4.6480  -0.3335 H              1 <1>                0.0000
     58 H58          4.1189  -3.1811  -0.5925 H              1 <1>                0.0000
     59 H59          0.2287  -3.4237  -2.3536 H              1 <1>                0.0000
     60 H60          0.7890  -4.7374  -1.2912 H              1 <1>                0.0000
     61 H61         -3.5971  -1.1557   5.1585 H              1 <1>                0.0000
     62 H62         -2.6428  -2.5589   5.6956 H              1 <1>                0.0000
     63 H63         -0.7607  -0.9575   6.2820 H              1 <1>                0.0000
     64 H64         -1.9895   2.5122   6.9279 H              1 <1>                0.0000
     65 H65         -1.6703   0.7782   9.0729 H              1 <1>                0.0000
     66 H66         -3.5472   2.2456   8.7108 H              1 <1>                0.0000
     67 H67         -1.8822  -1.3875   8.2948 H              1 <1>                0.0000
     68 H68          0.5365  -0.1296   6.0108 H              1 <1>                0.0000
     69 H69          4.4922   1.7891   8.0164 H              1 <1>                0.0000
     70 H70          4.8261   3.0632   9.0594 H              1 <1>                0.0000
     71 H71          0.8041   4.9726  10.0466 H              1 <1>                0.0000
     72 H72          3.8915  -3.7131  -3.0386 H              1 <1>                0.0000
     73 H73          1.8024  -5.6804  -2.5979 H              1 <1>                0.0000
     74 H74          2.9223  -1.7454  -4.3138 H              1 <1>                0.0000
     75 H75          1.5942  -2.5901  -6.6588 H              1 <1>                0.0000
     76 H76          0.3827  -1.9267  -5.5361 H              1 <1>                0.0000
     77 H77          1.6752   0.1843  -5.3886 H              1 <1>                0.0000
     78 H78          2.8867  -0.4791  -6.5113 H              1 <1>                0.0000
     79 H79          1.8394   1.7716  -7.5603 H              1 <1>                0.0000
     80 H80          0.5113   0.9269  -9.9053 H              1 <1>                0.0000
     81 H81         -0.7002   1.5903  -8.7826 H              1 <1>                0.0000
     82 H82          0.5923   3.7013  -8.6351 H              1 <1>                0.0000
     83 H83          1.8038   3.0379  -9.7579 H              1 <1>                0.0000
     84 H84         -2.9359   5.6498  -8.7569 H              1 <1>                0.0000
     85 H85         -1.1570   5.5957  -8.7823 H              1 <1>                0.0000
     86 H86         -1.1694   6.3057 -11.1581 H              1 <1>                0.0000
     87 H87         -2.9483   6.3598 -11.1327 H              1 <1>                0.0000
     88 H88         -1.9863   8.4995 -10.6832 H              1 <1>                0.0000
@<TRIPOS>BOND
    1    1    2 1     
    2    1   53 1     
    3    1   54 1     
    4    1   55 1     
    5    2    3 1     
    6    2    4 1     
    7    2   36 1     
    8    3   56 1     
    9    3   57 1     
   10    3   58 1     
   11    4    5 1     
   12    4   59 1     
   13    4   60 1     
   14    5    6 1     
   15    6    7 ar    
   16    6    8 ar    
   17    6    9 1     
   18    9   10 1     
   19   10   11 ar    
   20   10   12 ar    
   21   10   13 1     
   22   13   14 1     
   23   14   15 1     
   24   14   61 1     
   25   14   62 1     
   26   15   20 1     
   27   15   16 1     
   28   15   63 1     
   29   16   17 1     
   30   17   18 1     
   31   17   26 1     
   32   17   64 1     
   33   18   19 1     
   34   18   20 1     
   35   18   65 1     
   36   19   66 1     
   37   20   21 1     
   38   20   67 1     
   39   21   22 1     
   40   22   23 ar    
   41   22   24 ar    
   42   22   25 ar    
   43   26   35 1     
   44   26   27 1     
   45   27   28 2     
   46   27   68 1     
   47   28   29 1     
   48   29   35 ar    
   49   29   30 ar    
   50   30   31 1     
   51   30   32 ar    
   52   31   69 1     
   53   31   70 1     
   54   32   33 ar    
   55   33   34 ar    
   56   33   71 1     
   57   34   35 ar    
   58   36   37 1     
   59   36   38 1     
   60   36   72 1     
   61   37   73 1     
   62   38   39 2     
   63   38   40 am    
   64   40   41 1     
   65   40   74 1     
   66   41   42 1     
   67   41   75 1     
   68   41   76 1     
   69   42   43 1     
   70   42   77 1     
   71   42   78 1     
   72   43   44 2     
   73   43   45 am    
   74   45   46 1     
   75   45   79 1     
   76   46   47 1     
   77   46   80 1     
   78   46   81 1     
   79   47   48 1     
   80   47   82 1     
   81   47   83 1     
   82   48   49 1     
   83   49   50 1     
   84   50   51 1     
   85   50   84 1     
   86   50   85 1     
   87   51   52 1     
   88   51   86 1     
   89   51   87 1     
   90   52   88 1     
@<TRIPOS>SUBSTRUCTURE
      1 ****           1
@<TRIPOS>SET
DONOR_HYDROGENS      STATIC     ATOMS    <user>   **** ""
7 66 69 70 73 74 79 88
ATOM$RED        STATIC     ATOMS    COLORGROUP SYSTEM
7 66 69 70 73 74 79 88
