#       Name:                COO
#       Creating user name   gbret
#       Creation time:       Fri Sep  9 05:52:58 2016


#       File generated by GOLD software.
#

@<TRIPOS>MOLECULE
COO
    89    91     1
SMALL
NO_CHARGES


@<TRIPOS>ATOM
      1 C1           9.9757   8.9031   9.5518 C.3            1 <1>                0.0000
      2 C2           9.5158   7.7591   8.6854 C.2            1 <1>                0.0000
      3 C3           8.9886   8.0014   7.4888 C.2            1 <1>                0.0000
      4 C4           8.5397   6.8847   6.6431 C.2            1 <1>                0.0000
      5 O5           8.6507   5.7394   7.0383 O.2            1 <1>                0.0000
      6 S6           7.8411   7.2057   5.0577 S.3            1 <1>                0.0000
      7 C7           7.4964   5.5130   4.5175 C.3            1 <1>                0.0000
      8 C8           6.8670   5.5407   3.1232 C.3            1 <1>                0.0000
      9 N9           6.5880   4.1706   2.6860 N.am           1 <1>                0.0000
     10 C10          6.0290   3.9488   1.4798 C.2            1 <1>                0.0000
     11 O11          5.7569   4.8835   0.7564 O.2            1 <1>                0.0000
     12 C12          5.7420   2.5394   1.0301 C.3            1 <1>                0.0000
     13 C13          5.1126   2.5672  -0.3642 C.3            1 <1>                0.0000
     14 N14          4.8336   1.1971  -0.8014 N.am           1 <1>                0.0000
     15 C15          4.2745   0.9753  -2.0076 C.2            1 <1>                0.0000
     16 O16          3.9189   1.9109  -2.6924 O.2            1 <1>                0.0000
     17 C17          4.0915  -0.4353  -2.5053 C.3            1 <1>                0.0000
     18 O18          4.7194  -1.3452  -1.5998 O.3            1 <1>                0.0000
     19 C19          2.5978  -0.7546  -2.5951 C.3            1 <1>                0.0000
     20 C20          1.9373  -0.4897  -1.2407 C.3            1 <1>                0.0000
     21 C21          1.9500   0.1320  -3.6606 C.3            1 <1>                0.0000
     22 C22          2.4126  -2.2253  -2.9739 C.3            1 <1>                0.0000
     23 O23          1.0176  -2.5235  -3.0579 O.3            1 <1>                0.0000
     24 P24          0.4542  -3.9836  -3.4359 P.3            1 <1>                0.0000
     25 O25          0.8574  -4.3315  -4.8863 O.co2          1 <1>                0.0000
     26 O26          1.0506  -5.0317  -2.4701 O.co2          1 <1>                0.0000
     27 O27         -1.1508  -3.9889  -3.3091 O.3            1 <1>                0.0000
     28 P28         -2.2557  -5.1481  -3.1430 P.3            1 <1>                0.0000
     29 O29         -2.4468  -5.8746  -4.4931 O.co2          1 <1>                0.0000
     30 O30         -1.7837  -6.1604  -2.0757 O.co2          1 <1>                0.0000
     31 O31         -3.6534  -4.4952  -2.6824 O.3            1 <1>                0.0000
     32 C32         -4.8043  -5.2743  -2.3498 C.3            1 <1>                0.0000
     33 C33         -5.9538  -4.3441  -1.9571 C.3            1 <1>                0.0000
     34 O34         -6.4329  -3.6215  -3.1121 O.3            1 <1>                0.0000
     35 C35         -7.7656  -3.1875  -2.7636 C.3            1 <1>                0.0000
     36 C36         -8.3886  -4.3874  -2.0162 C.3            1 <1>                0.0000
     37 O37         -9.1420  -5.2018  -2.9168 O.3            1 <1>                0.0000
     38 C38         -7.1692  -5.1657  -1.4734 C.3            1 <1>                0.0000
     39 O39         -7.1324  -6.4846  -2.0222 O.3            1 <1>                0.0000
     40 P40         -7.1596  -7.8135  -1.1137 P.3            1 <1>                0.0000
     41 O41         -8.5317  -7.9050  -0.3632 O.co2          1 <1>                0.0000
     42 O42         -6.9784  -9.0739  -2.0263 O.co2          1 <1>                0.0000
     43 O43         -5.9950  -7.7547  -0.0673 O.co2          1 <1>                0.0000
     44 N44         -7.7073  -2.0152  -1.8870 N.pl3          1 <1>                0.0000
     45 C45         -6.6311  -1.6069  -1.1566 C.2            1 <1>                0.0000
     46 N46         -6.9286  -0.5285  -0.4917 N.2            1 <1>                0.0000
     47 C47         -8.2108  -0.1773  -0.7523 C.ar           1 <1>                0.0000
     48 C48         -9.0548   0.8652  -0.3327 C.ar           1 <1>                0.0000
     49 N49         -8.6030   1.8300   0.5507 N.pl3          1 <1>                0.0000
     50 N50        -10.2966   0.9033  -0.8042 N.ar           1 <1>                0.0000
     51 C51        -10.7361  -0.0129  -1.6479 C.ar           1 <1>                0.0000
     52 N52         -9.9820  -1.0064  -2.0680 N.ar           1 <1>                0.0000
     53 C53         -8.7239  -1.1234  -1.6552 C.ar           1 <1>                0.0000
     54 H54          9.1322   9.5602   9.7639 H              1 <1>                0.0000
     55 H55         10.3759   8.5123  10.4873 H              1 <1>                0.0000
     56 H56         10.7515   9.4643   9.0310 H              1 <1>                0.0000
     57 H57          9.6144   6.7424   9.0362 H              1 <1>                0.0000
     58 H58          8.8900   9.0180   7.1380 H              1 <1>                0.0000
     59 H59          8.4264   4.9454   4.4850 H              1 <1>                0.0000
     60 H60          6.8072   5.0413   5.2179 H              1 <1>                0.0000
     61 H61          5.9370   6.1083   3.1556 H              1 <1>                0.0000
     62 H62          7.5562   6.0124   2.4228 H              1 <1>                0.0000
     63 H63          6.8056   3.4231   3.2646 H              1 <1>                0.0000
     64 H64          6.6720   1.9719   0.9976 H              1 <1>                0.0000
     65 H65          5.0527   2.0678   1.7305 H              1 <1>                0.0000
     66 H66          4.1826   3.1348  -0.3318 H              1 <1>                0.0000
     67 H67          5.8018   3.0389  -1.0646 H              1 <1>                0.0000
     68 H68          5.0512   0.4496  -0.2228 H              1 <1>                0.0000
     69 H69          4.5441  -0.5341  -3.4919 H              1 <1>                0.0000
     70 H70          4.3659  -1.3118  -0.7004 H              1 <1>                0.0000
     71 H71          2.0693   0.5581  -0.9708 H              1 <1>                0.0000
     72 H72          0.8732  -0.7172  -1.3047 H              1 <1>                0.0000
     73 H73          2.3989  -1.1213  -0.4817 H              1 <1>                0.0000
     74 H74          2.4945   0.0289  -4.5992 H              1 <1>                0.0000
     75 H75          0.9138  -0.1733  -3.8062 H              1 <1>                0.0000
     76 H76          1.9801   1.1719  -3.3353 H              1 <1>                0.0000
     77 H77          2.8832  -2.4140  -3.9389 H              1 <1>                0.0000
     78 H78          2.8741  -2.8569  -2.2149 H              1 <1>                0.0000
     79 H79         -5.0994  -5.8727  -3.2117 H              1 <1>                0.0000
     80 H80         -4.5680  -5.9328  -1.5140 H              1 <1>                0.0000
     81 H81         -5.6313  -3.6505  -1.1804 H              1 <1>                0.0000
     82 H82         -8.3385  -2.9617  -3.6630 H              1 <1>                0.0000
     83 H83         -9.0190  -4.0415  -1.1971 H              1 <1>                0.0000
     84 H84         -9.8849  -4.7440  -3.3335 H              1 <1>                0.0000
     85 H85         -7.1949  -5.2047  -0.3844 H              1 <1>                0.0000
     86 H86         -5.6733  -2.1051  -1.1328 H              1 <1>                0.0000
     87 H87         -7.6943   1.7916   0.8876 H              1 <1>                0.0000
     88 H88         -9.1951   2.5447   0.8328 H              1 <1>                0.0000
     89 H89        -11.7527   0.0556  -2.0062 H              1 <1>                0.0000
@<TRIPOS>BOND
    1    1    2 1     
    2    1   54 1     
    3    1   55 1     
    4    1   56 1     
    5    2    3 2     
    6    2   57 1     
    7    3    4 1     
    8    3   58 1     
    9    4    5 2     
   10    4    6 1     
   11    6    7 1     
   12    7    8 1     
   13    7   59 1     
   14    7   60 1     
   15    8    9 1     
   16    8   61 1     
   17    8   62 1     
   18    9   10 am    
   19    9   63 1     
   20   10   11 2     
   21   10   12 1     
   22   12   13 1     
   23   12   64 1     
   24   12   65 1     
   25   13   14 1     
   26   13   66 1     
   27   13   67 1     
   28   14   15 am    
   29   14   68 1     
   30   15   16 2     
   31   15   17 1     
   32   17   18 1     
   33   17   19 1     
   34   17   69 1     
   35   18   70 1     
   36   19   20 1     
   37   19   21 1     
   38   19   22 1     
   39   20   71 1     
   40   20   72 1     
   41   20   73 1     
   42   21   74 1     
   43   21   75 1     
   44   21   76 1     
   45   22   23 1     
   46   22   77 1     
   47   22   78 1     
   48   23   24 1     
   49   24   25 ar    
   50   24   26 ar    
   51   24   27 1     
   52   27   28 1     
   53   28   29 ar    
   54   28   30 ar    
   55   28   31 1     
   56   31   32 1     
   57   32   33 1     
   58   32   79 1     
   59   32   80 1     
   60   33   38 1     
   61   33   34 1     
   62   33   81 1     
   63   34   35 1     
   64   35   36 1     
   65   35   44 1     
   66   35   82 1     
   67   36   37 1     
   68   36   38 1     
   69   36   83 1     
   70   37   84 1     
   71   38   39 1     
   72   38   85 1     
   73   39   40 1     
   74   40   41 ar    
   75   40   42 ar    
   76   40   43 ar    
   77   44   53 1     
   78   44   45 1     
   79   45   46 2     
   80   45   86 1     
   81   46   47 1     
   82   47   53 ar    
   83   47   48 ar    
   84   48   49 1     
   85   48   50 ar    
   86   49   87 1     
   87   49   88 1     
   88   50   51 ar    
   89   51   52 ar    
   90   51   89 1     
   91   52   53 ar    
@<TRIPOS>SUBSTRUCTURE
      1 ****           1
@<TRIPOS>SET
DONOR_HYDROGENS      STATIC     ATOMS    <user>   **** ""
6 63 68 70 84 87 88
ATOM$RED        STATIC     ATOMS    COLORGROUP SYSTEM
6 63 68 70 84 87 88
