#       Name:                COQ
#       Creating user name   gbret
#       Creation time:       Fri Sep  9 05:53:09 2016


#       File generated by GOLD software.
#

@<TRIPOS>MOLECULE
COQ
    45    47     1
SMALL
NO_CHARGES


@<TRIPOS>ATOM
      1 C1           0.8982   4.4846   2.2077 C.3            1 <1>                0.0000
      2 O2           0.9176   3.0557   2.1998 O.3            1 <1>                0.0000
      3 C3           1.5213   2.4527   1.1421 C.ar           1 <1>                0.0000
      4 C4           1.5711   1.0679   1.0678 C.ar           1 <1>                0.0000
      5 C5           2.1847   0.4541  -0.0073 C.ar           1 <1>                0.0000
      6 C6           2.2378  -1.0499  -0.0853 C.3            1 <1>                0.0000
      7 N7           1.0537  -1.5444  -0.7921 N.pl3          1 <1>                0.0000
      8 C8           1.0862  -1.7125  -2.2471 C.3            1 <1>                0.0000
      9 C9          -0.1084  -1.8561  -0.0775 C.ar           1 <1>                0.0000
     10 C10         -0.1463  -1.6921   1.3087 C.ar           1 <1>                0.0000
     11 N11         -1.2219  -1.9753   2.0072 N.ar           1 <1>                0.0000
     12 C12         -2.3300  -2.4335   1.4247 C.ar           1 <1>                0.0000
     13 N13         -3.4299  -2.7229   2.1370 N.ar           1 <1>                0.0000
     14 C14         -4.5158  -3.1749   1.5400 C.ar           1 <1>                0.0000
     15 N15         -5.6259  -3.4594   2.3137 N.pl3          1 <1>                0.0000
     16 N16         -4.5897  -3.3685   0.2262 N.ar           1 <1>                0.0000
     17 C17         -3.5585  -3.1130  -0.5659 C.ar           1 <1>                0.0000
     18 N18         -3.6446  -3.3164  -1.9265 N.pl3          1 <1>                0.0000
     19 C19         -2.3652  -2.6250   0.0219 C.ar           1 <1>                0.0000
     20 C20         -1.2308  -2.3240  -0.7414 C.ar           1 <1>                0.0000
     21 C21          2.7494   1.2172  -1.0114 C.ar           1 <1>                0.0000
     22 C22          2.7022   2.6024  -0.9417 C.ar           1 <1>                0.0000
     23 O23          3.2578   3.3523  -1.9295 O.3            1 <1>                0.0000
     24 C24          3.1722   4.7721  -1.7923 C.3            1 <1>                0.0000
     25 C25          2.0829   3.2205   0.1336 C.ar           1 <1>                0.0000
     26 H26          1.9208   4.8619   2.1999 H              1 <1>                0.0000
     27 H27          0.3710   4.8457   1.3246 H              1 <1>                0.0000
     28 H28          0.3880   4.8361   3.1045 H              1 <1>                0.0000
     29 H29          1.1301   0.4693   1.8512 H              1 <1>                0.0000
     30 H30          3.1356  -1.3544  -0.6232 H              1 <1>                0.0000
     31 H31          2.2594  -1.4654   0.9222 H              1 <1>                0.0000
     32 H32          1.4263  -2.7194  -2.4890 H              1 <1>                0.0000
     33 H33          0.0862  -1.5594  -2.6529 H              1 <1>                0.0000
     34 H34          1.7702  -0.9837  -2.6819 H              1 <1>                0.0000
     35 H35          0.7310  -1.3234   1.8193 H              1 <1>                0.0000
     36 H36         -5.5950  -3.3255   3.2740 H              1 <1>                0.0000
     37 H37         -6.4355  -3.7928   1.8963 H              1 <1>                0.0000
     38 H38         -4.4678  -3.6507  -2.3157 H              1 <1>                0.0000
     39 H39         -2.8821  -3.1251  -2.4947 H              1 <1>                0.0000
     40 H40         -1.2295  -2.4560  -1.8133 H              1 <1>                0.0000
     41 H41          3.2282   0.7352  -1.8510 H              1 <1>                0.0000
     42 H42          3.6533   5.2493  -2.6461 H              1 <1>                0.0000
     43 H43          2.1247   5.0707  -1.7519 H              1 <1>                0.0000
     44 H44          3.6732   5.0793  -0.8744 H              1 <1>                0.0000
     45 H45          2.0451   4.2983   0.1896 H              1 <1>                0.0000
@<TRIPOS>BOND
    1    1    2 1     
    2    1   26 1     
    3    1   27 1     
    4    1   28 1     
    5    2    3 1     
    6    3   25 ar    
    7    3    4 ar    
    8    4    5 ar    
    9    4   29 1     
   10    5    6 1     
   11    5   21 ar    
   12    6    7 1     
   13    6   30 1     
   14    6   31 1     
   15    7    8 1     
   16    7    9 1     
   17    8   32 1     
   18    8   33 1     
   19    8   34 1     
   20    9   20 ar    
   21    9   10 ar    
   22   10   11 ar    
   23   10   35 1     
   24   11   12 ar    
   25   12   19 ar    
   26   12   13 ar    
   27   13   14 ar    
   28   14   15 1     
   29   14   16 ar    
   30   15   36 1     
   31   15   37 1     
   32   16   17 ar    
   33   17   18 1     
   34   17   19 ar    
   35   18   38 1     
   36   18   39 1     
   37   19   20 ar    
   38   20   40 1     
   39   21   22 ar    
   40   21   41 1     
   41   22   23 1     
   42   22   25 ar    
   43   23   24 1     
   44   24   42 1     
   45   24   43 1     
   46   24   44 1     
   47   25   45 1     
@<TRIPOS>SUBSTRUCTURE
      1 ****           1
@<TRIPOS>SET
DONOR_HYDROGENS      STATIC     ATOMS    <user>   **** ""
4 36 37 38 39
ATOM$RED        STATIC     ATOMS    COLORGROUP SYSTEM
4 36 37 38 39
