#       Name:                COT
#       Creating user name   gbret
#       Creation time:       Fri Sep  9 05:53:23 2016


#       File generated by GOLD software.
#

@<TRIPOS>MOLECULE
COT
   107   111     1
SMALL
NO_CHARGES


@<TRIPOS>ATOM
      1 C1           2.5879  -3.5650   1.0068 C.3            1 <1>                0.0000
      2 C2           2.5397  -5.0731   1.2605 C.3            1 <1>                0.0000
      3 C3           3.3743  -5.4090   2.4980 C.3            1 <1>                0.0000
      4 C4           1.0902  -5.5055   1.4901 C.3            1 <1>                0.0000
      5 O5           0.5609  -4.8147   2.6236 O.3            1 <1>                0.0000
      6 P6          -0.9439  -5.0264   3.1554 P.3            1 <1>                0.0000
      7 O7          -1.9426  -4.5272   2.0875 O.co2          1 <1>                0.0000
      8 O8          -1.1878  -6.5277   3.4268 O.co2          1 <1>                0.0000
      9 O9          -1.1539  -4.1939   4.5173 O.3            1 <1>                0.0000
     10 P10         -2.2100  -4.2804   5.7295 P.3            1 <1>                0.0000
     11 O11         -3.5687  -3.7054   5.2708 O.co2          1 <1>                0.0000
     12 O12         -2.3909  -5.7558   6.1506 O.co2          1 <1>                0.0000
     13 O13         -1.6616  -3.4285   6.9808 O.3            1 <1>                0.0000
     14 C14         -2.3222  -3.3930   8.2475 C.3            1 <1>                0.0000
     15 C15         -1.5391  -2.4936   9.2060 C.3            1 <1>                0.0000
     16 O16         -1.6457  -1.1119   8.7991 O.3            1 <1>                0.0000
     17 C17         -1.3274  -0.3422   9.9790 C.3            1 <1>                0.0000
     18 C18         -2.0221  -1.0908  11.1380 C.3            1 <1>                0.0000
     19 O19         -3.3074  -0.5244  11.4008 O.3            1 <1>                0.0000
     20 C20         -2.1646  -2.5387  10.6178 C.3            1 <1>                0.0000
     21 O21         -3.5423  -2.9107  10.5434 O.3            1 <1>                0.0000
     22 P22         -4.1551  -4.1686  11.3397 P.3            1 <1>                0.0000
     23 O23         -4.0611  -3.9068  12.8815 O.co2          1 <1>                0.0000
     24 O24         -5.6557  -4.3631  10.9336 O.co2          1 <1>                0.0000
     25 O25         -3.3450  -5.4601  10.9789 O.co2          1 <1>                0.0000
     26 N26          0.1220  -0.3081  10.1900 N.pl3          1 <1>                0.0000
     27 C27          1.0371  -1.1565   9.6413 C.2            1 <1>                0.0000
     28 N28          2.2338  -0.8391  10.0422 N.2            1 <1>                0.0000
     29 C29          2.1629   0.2299  10.8713 C.ar           1 <1>                0.0000
     30 C30          3.1039   0.9896  11.5873 C.ar           1 <1>                0.0000
     31 N31          4.4532   0.6890  11.5226 N.pl3          1 <1>                0.0000
     32 N32          2.6680   2.0034  12.3274 N.ar           1 <1>                0.0000
     33 C33          1.3822   2.2979  12.3947 C.ar           1 <1>                0.0000
     34 N34          0.4659   1.6148  11.7419 N.ar           1 <1>                0.0000
     35 C35          0.8078   0.5871  10.9713 C.ar           1 <1>                0.0000
     36 C36          3.1064  -5.8127   0.0469 C.3            1 <1>                0.0000
     37 O37          2.9807  -7.2221   0.2467 O.3            1 <1>                0.0000
     38 C38          2.3427  -5.4104  -1.1883 C.2            1 <1>                0.0000
     39 O39          1.5685  -6.1892  -1.7031 O.2            1 <1>                0.0000
     40 N40          2.5199  -4.1851  -1.7210 N.am           1 <1>                0.0000
     41 C41          1.7019  -3.7552  -2.8577 C.3            1 <1>                0.0000
     42 C42          2.1013  -2.3356  -3.2655 C.3            1 <1>                0.0000
     43 C43          1.2598  -1.8934  -4.4348 C.2            1 <1>                0.0000
     44 O44          0.4230  -2.6401  -4.8966 O.2            1 <1>                0.0000
     45 N45          1.4370  -0.6681  -4.9675 N.am           1 <1>                0.0000
     46 C46          0.6190  -0.2382  -6.1042 C.3            1 <1>                0.0000
     47 C47          1.0184   1.1814  -6.5120 C.3            1 <1>                0.0000
     48 S48          0.0054   1.7137  -7.9196 S.3            1 <1>                0.0000
     49 C49          0.6159   3.3895  -8.2510 C.3            1 <1>                0.0000
     50 C50         -0.1397   3.9784  -9.4143 C.2            1 <1>                0.0000
     51 O51         -1.0048   3.3314  -9.9655 O.2            1 <1>                0.0000
     52 N52          0.1459   5.2242  -9.8421 N.am           1 <1>                0.0000
     53 C53         -0.5886   5.7967 -10.9730 C.3            1 <1>                0.0000
     54 C54         -0.0738   7.2101 -11.2525 C.3            1 <1>                0.0000
     55 C55         -0.8293   7.7990 -12.4158 C.2            1 <1>                0.0000
     56 C56         -0.4506   7.7845 -13.7036 C.2            1 <1>                0.0000
     57 N57         -1.3902   8.4147 -14.4732 N.pl3          1 <1>                0.0000
     58 H58         -1.3368   8.5296 -15.4349 H              1 <1>                0.0000
     59 C59         -2.4226   8.8615 -13.6793 C.ar           1 <1>                0.0000
     60 C60         -3.6037   9.5486 -13.9407 C.ar           1 <1>                0.0000
     61 C61         -4.4566   9.8616 -12.9053 C.ar           1 <1>                0.0000
     62 C62         -4.1501   9.4982 -11.6009 C.ar           1 <1>                0.0000
     63 C63         -2.9957   8.8230 -11.3216 C.ar           1 <1>                0.0000
     64 C64         -2.1195   8.4904 -12.3567 C.ar           1 <1>                0.0000
     65 H65          3.6247  -3.2486   0.8931 H              1 <1>                0.0000
     66 H66          2.0350  -3.3318   0.0968 H              1 <1>                0.0000
     67 H67          2.1382  -3.0402   1.8497 H              1 <1>                0.0000
     68 H68          2.9203  -4.9522   3.3774 H              1 <1>                0.0000
     69 H69          3.4114  -6.4905   2.6286 H              1 <1>                0.0000
     70 H70          4.3858  -5.0236   2.3696 H              1 <1>                0.0000
     71 H71          0.4956  -5.2662   0.6085 H              1 <1>                0.0000
     72 H72          1.0559  -6.5799   1.6709 H              1 <1>                0.0000
     73 H73         -3.3302  -2.9982   8.1206 H              1 <1>                0.0000
     74 H74         -2.3759  -4.4014   8.6577 H              1 <1>                0.0000
     75 H75         -0.4938  -2.8000   9.2441 H              1 <1>                0.0000
     76 H76         -1.7226   0.6697   9.8900 H              1 <1>                0.0000
     77 H77         -1.4034  -1.0643  12.0350 H              1 <1>                0.0000
     78 H78         -3.2803   0.4031  11.6729 H              1 <1>                0.0000
     79 H79         -1.6153  -3.2300  11.2569 H              1 <1>                0.0000
     80 H80          0.8034  -1.9721   8.9729 H              1 <1>                0.0000
     81 H81          4.7591  -0.0535  10.9784 H              1 <1>                0.0000
     82 H82          5.0929   1.2207  12.0214 H              1 <1>                0.0000
     83 H83          1.0710   3.1301  13.0087 H              1 <1>                0.0000
     84 H84          4.1584  -5.5556  -0.0765 H              1 <1>                0.0000
     85 H85          2.0693  -7.5229   0.3642 H              1 <1>                0.0000
     86 H86          3.1892  -3.5879  -1.3517 H              1 <1>                0.0000
     87 H87          1.8611  -4.4326  -3.6967 H              1 <1>                0.0000
     88 H88          0.6496  -3.7692  -2.5740 H              1 <1>                0.0000
     89 H89          1.9421  -1.6582  -2.4265 H              1 <1>                0.0000
     90 H90          3.1536  -2.3216  -3.5492 H              1 <1>                0.0000
     91 H91          2.1063  -0.0709  -4.5982 H              1 <1>                0.0000
     92 H92          0.7782  -0.9156  -6.9432 H              1 <1>                0.0000
     93 H93         -0.4333  -0.2522  -5.8205 H              1 <1>                0.0000
     94 H94          0.8592   1.8588  -5.6730 H              1 <1>                0.0000
     95 H95          2.0707   1.1954  -6.7958 H              1 <1>                0.0000
     96 H96          0.4668   4.0116  -7.3685 H              1 <1>                0.0000
     97 H97          1.6783   3.3483  -8.4912 H              1 <1>                0.0000
     98 H98          0.8378   5.7416  -9.4012 H              1 <1>                0.0000
     99 H99         -0.4395   5.1745 -11.8555 H              1 <1>                0.0000
    100 H100        -1.6510   5.8379 -10.7328 H              1 <1>                0.0000
    101 H101        -0.2229   7.8322 -10.3700 H              1 <1>                0.0000
    102 H102         0.9886   7.1689 -11.4927 H              1 <1>                0.0000
    103 H103         0.4609   7.3416 -14.0768 H              1 <1>                0.0000
    104 H104        -3.8508   9.8360 -14.9520 H              1 <1>                0.0000
    105 H105        -5.3728  10.3954 -13.1103 H              1 <1>                0.0000
    106 H106        -4.8295   9.7516 -10.8005 H              1 <1>                0.0000
    107 H107        -2.7639   8.5435 -10.3045 H              1 <1>                0.0000
@<TRIPOS>BOND
    1    1    2 1     
    2    1   65 1     
    3    1   66 1     
    4    1   67 1     
    5    2    3 1     
    6    2    4 1     
    7    2   36 1     
    8    3   68 1     
    9    3   69 1     
   10    3   70 1     
   11    4    5 1     
   12    4   71 1     
   13    4   72 1     
   14    5    6 1     
   15    6    7 ar    
   16    6    8 ar    
   17    6    9 1     
   18    9   10 1     
   19   10   11 ar    
   20   10   12 ar    
   21   10   13 1     
   22   13   14 1     
   23   14   15 1     
   24   14   73 1     
   25   14   74 1     
   26   15   20 1     
   27   15   16 1     
   28   15   75 1     
   29   16   17 1     
   30   17   18 1     
   31   17   26 1     
   32   17   76 1     
   33   18   19 1     
   34   18   20 1     
   35   18   77 1     
   36   19   78 1     
   37   20   21 1     
   38   20   79 1     
   39   21   22 1     
   40   22   23 ar    
   41   22   24 ar    
   42   22   25 ar    
   43   26   35 1     
   44   26   27 1     
   45   27   28 2     
   46   27   80 1     
   47   28   29 1     
   48   29   35 ar    
   49   29   30 ar    
   50   30   31 1     
   51   30   32 ar    
   52   31   81 1     
   53   31   82 1     
   54   32   33 ar    
   55   33   34 ar    
   56   33   83 1     
   57   34   35 ar    
   58   36   37 1     
   59   36   38 1     
   60   36   84 1     
   61   37   85 1     
   62   38   39 2     
   63   38   40 am    
   64   40   41 1     
   65   40   86 1     
   66   41   42 1     
   67   41   87 1     
   68   41   88 1     
   69   42   43 1     
   70   42   89 1     
   71   42   90 1     
   72   43   44 2     
   73   43   45 am    
   74   45   46 1     
   75   45   91 1     
   76   46   47 1     
   77   46   92 1     
   78   46   93 1     
   79   47   48 1     
   80   47   94 1     
   81   47   95 1     
   82   48   49 1     
   83   49   50 1     
   84   49   96 1     
   85   49   97 1     
   86   50   51 2     
   87   50   52 am    
   88   52   53 1     
   89   52   98 1     
   90   53   54 1     
   91   53   99 1     
   92   53  100 1     
   93   54   55 1     
   94   54  101 1     
   95   54  102 1     
   96   55   64 1     
   97   55   56 2     
   98   56   57 1     
   99   56  103 1     
  100   57   58 1     
  101   57   59 1     
  102   59   64 ar    
  103   59   60 ar    
  104   60   61 ar    
  105   60  104 1     
  106   61   62 ar    
  107   61  105 1     
  108   62   63 ar    
  109   62  106 1     
  110   63   64 ar    
  111   63  107 1     
@<TRIPOS>SUBSTRUCTURE
      1 ****           1
@<TRIPOS>SET
DONOR_HYDROGENS      STATIC     ATOMS    <user>   **** ""
8 78 81 82 85 86 91 98 58
ATOM$RED        STATIC     ATOMS    COLORGROUP SYSTEM
8 78 81 82 85 86 91 98 58
