#       Name:                CQ1
#       Creating user name   gbret
#       Creation time:       Fri Sep  9 05:56:18 2016


#       File generated by GOLD software.
#

@<TRIPOS>MOLECULE
CQ1
    42    43     1
SMALL
NO_CHARGES


@<TRIPOS>ATOM
      1 C1           0.5936   5.1880  -0.4278 C.3            1 <1>                0.0000
      2 C2           0.7710   3.6687  -0.4595 C.3            1 <1>                0.0000
      3 O3           1.7772   3.2868   0.4806 O.3            1 <1>                0.0000
      4 C4          -0.5520   2.9930  -0.0933 C.3            1 <1>                0.0000
      5 N5          -1.5863   3.3855  -1.0597 N.4            1 <1>                0.0000
      6 H6          -1.3074   3.0988  -1.9860 H              1 <1>                0.0000
      7 H7          -2.4588   2.9399  -0.8181 H              1 <1>                0.0000
      8 H8          -1.7033   4.3875  -1.0387 H              1 <1>                0.0000
      9 C9          -0.3772   1.4965  -0.1246 C.2            1 <1>                0.0000
     10 N10         -0.5681   0.7574  -1.1779 N.pl3          1 <1>                0.0000
     11 H11         -0.8408   1.0846  -2.0493 H              1 <1>                0.0000
     12 C12         -0.3266  -0.5385  -0.8707 C.2            1 <1>                0.0000
     13 C13         -0.4192  -1.6313  -1.7206 C.2            1 <1>                0.0000
     14 C14         -0.2920  -2.9377  -1.2056 C.ar           1 <1>                0.0000
     15 C15          0.4342  -3.9000  -1.9365 C.ar           1 <1>                0.0000
     16 C16          0.5744  -5.1629  -1.4679 C.ar           1 <1>                0.0000
     17 C17         -0.0394  -5.5241  -0.1855 C.ar           1 <1>                0.0000
     18 C18         -0.7885  -4.4999   0.5506 C.ar           1 <1>                0.0000
     19 C19         -0.8888  -3.2527   0.0322 C.ar           1 <1>                0.0000
     20 N20          0.0797  -6.7470   0.2966 N.2            1 <1>                0.0000
     21 N21         -0.3951  -7.0119   1.2804 N.1            1 <1>                0.0000
     22 N22         -0.8698  -7.2769   2.2641 N.1            1 <1>                0.0000
     23 C23          0.0565  -0.5492   0.5571 C.2            1 <1>                0.0000
     24 O24          0.3563  -1.5141   1.2350 O.2            1 <1>                0.0000
     25 N25          0.0068   0.7444   0.9461 N.am           1 <1>                0.0000
     26 C26          0.3057   1.2501   2.2882 C.3            1 <1>                0.0000
     27 C27          1.7719   1.5849   2.3839 C.2            1 <1>                0.0000
     28 O28          2.4997   1.4168   1.4203 O.co2          1 <1>                0.0000
     29 O29          2.2303   2.0240   3.4248 O.co2          1 <1>                0.0000
     30 H30          1.5361   5.6694  -0.6887 H              1 <1>                0.0000
     31 H31         -0.1739   5.4793  -1.1449 H              1 <1>                0.0000
     32 H32          0.2922   5.4978   0.5729 H              1 <1>                0.0000
     33 H33          1.0724   3.3589  -1.4602 H              1 <1>                0.0000
     34 H34          1.5752   3.5315   1.3940 H              1 <1>                0.0000
     35 H35         -0.8533   3.3028   0.9074 H              1 <1>                0.0000
     36 H36         -0.5886  -1.4813  -2.7766 H              1 <1>                0.0000
     37 H37          0.8832  -3.6272  -2.8801 H              1 <1>                0.0000
     38 H38          1.1315  -5.8961  -2.0323 H              1 <1>                0.0000
     39 H39         -1.2515  -4.7368   1.4971 H              1 <1>                0.0000
     40 H40         -1.4385  -2.4936   0.5689 H              1 <1>                0.0000
     41 H41         -0.2848   2.1463   2.4786 H              1 <1>                0.0000
     42 H42          0.0581   0.4880   3.0271 H              1 <1>                0.0000
@<TRIPOS>BOND
    1    1    2 1     
    2    1   30 1     
    3    1   31 1     
    4    1   32 1     
    5    2    3 1     
    6    2    4 1     
    7    2   33 1     
    8    3   34 1     
    9    4    5 1     
   10    4    9 1     
   11    4   35 1     
   12    5    6 1     
   13    5    7 1     
   14    5    8 1     
   15    9   25 2     
   16    9   10 1     
   17   10   11 1     
   18   10   12 1     
   19   12   13 2     
   20   12   23 1     
   21   13   14 1     
   22   13   36 1     
   23   14   19 ar    
   24   14   15 ar    
   25   15   16 ar    
   26   15   37 1     
   27   16   17 ar    
   28   16   38 1     
   29   17   18 ar    
   30   17   20 1     
   31   18   19 ar    
   32   18   39 1     
   33   19   40 1     
   34   20   21 2     
   35   21   22 2     
   36   23   24 2     
   37   23   25 am    
   38   25   26 1     
   39   26   27 1     
   40   26   41 1     
   41   26   42 1     
   42   27   28 ar    
   43   27   29 ar    
@<TRIPOS>SUBSTRUCTURE
      1 ****           1
@<TRIPOS>SET
DONOR_HYDROGENS      STATIC     ATOMS    <user>   **** ""
5 34 6 7 8 11
ATOM$RED        STATIC     ATOMS    COLORGROUP SYSTEM
5 34 6 7 8 11
