#       Name:                CQ3
#       Creating user name   gbret
#       Creation time:       Fri Sep  9 05:56:26 2016


#       File generated by GOLD software.
#

@<TRIPOS>MOLECULE
CQ3
    48    50     1
SMALL
NO_CHARGES


@<TRIPOS>ATOM
      1 C1          -3.0107   6.6943   2.8873 C.3            1 <1>                0.0000
      2 C2          -2.9787   5.1835   2.6477 C.3            1 <1>                0.0000
      3 C3          -1.7485   4.8267   1.8538 C.2            1 <1>                0.0000
      4 O4          -0.9735   5.6954   1.5131 O.2            1 <1>                0.0000
      5 N5          -1.5094   3.5424   1.5223 N.am           1 <1>                0.0000
      6 C6          -0.4323   3.2239   0.6847 C.ar           1 <1>                0.0000
      7 C7           0.0646   4.1699  -0.1993 C.ar           1 <1>                0.0000
      8 C8           1.1272   3.8536  -1.0247 C.ar           1 <1>                0.0000
      9 C9           1.6977   2.5949  -0.9729 C.ar           1 <1>                0.0000
     10 C10          1.2091   1.6458  -0.0950 C.ar           1 <1>                0.0000
     11 C11          0.1469   1.9566   0.7415 C.ar           1 <1>                0.0000
     12 N12         -0.3497   0.9971   1.6314 N.pl3          1 <1>                0.0000
     13 C13         -0.1779  -0.3523   1.3628 C.ar           1 <1>                0.0000
     14 N14          0.3607  -0.7481   0.2136 N.ar           1 <1>                0.0000
     15 C15          0.5264  -2.0362  -0.0455 C.ar           1 <1>                0.0000
     16 N16          1.0905  -2.4146  -1.2520 N.pl3          1 <1>                0.0000
     17 C17          1.2823  -3.8345  -1.5575 C.3            1 <1>                0.0000
     18 C18         -0.0045  -4.4075  -2.1595 C.3            1 <1>                0.0000
     19 C19          0.2301  -5.8696  -2.5479 C.3            1 <1>                0.0000
     20 O20          1.3212  -5.9476  -3.4675 O.3            1 <1>                0.0000
     21 C21          2.5616  -5.4696  -2.9430 C.3            1 <1>                0.0000
     22 C22          2.4207  -3.9914  -2.5703 C.3            1 <1>                0.0000
     23 N23          0.1666  -2.9718   0.8206 N.ar           1 <1>                0.0000
     24 C24         -0.3764  -2.6492   1.9856 C.ar           1 <1>                0.0000
     25 C25         -0.5629  -1.3160   2.2984 C.ar           1 <1>                0.0000
     26 Cl26        -1.2706  -0.8499   3.8135 Cl             1 <1>                0.0000
     27 H27         -2.1211   6.9931   3.4418 H              1 <1>                0.0000
     28 H28         -3.0332   7.2137   1.9293 H              1 <1>                0.0000
     29 H29         -3.9005   6.9523   3.4615 H              1 <1>                0.0000
     30 H30         -2.9562   4.6641   3.6057 H              1 <1>                0.0000
     31 H31         -3.8683   4.8847   2.0932 H              1 <1>                0.0000
     32 H32         -2.0830   2.8386   1.8636 H              1 <1>                0.0000
     33 H33         -0.3789   5.1537  -0.2430 H              1 <1>                0.0000
     34 H34          1.5129   4.5916  -1.7125 H              1 <1>                0.0000
     35 H35          2.5273   2.3527  -1.6205 H              1 <1>                0.0000
     36 H36          1.6568   0.6637  -0.0574 H              1 <1>                0.0000
     37 H37         -0.8141   1.2762   2.4360 H              1 <1>                0.0000
     38 H38          1.3586  -1.7396  -1.8949 H              1 <1>                0.0000
     39 H39          1.5305  -4.3739  -0.6435 H              1 <1>                0.0000
     40 H40         -0.8074  -4.3502  -1.4245 H              1 <1>                0.0000
     41 H41         -0.2788  -3.8347  -3.0453 H              1 <1>                0.0000
     42 H42          0.4647  -6.4497  -1.6555 H              1 <1>                0.0000
     43 H43         -0.6691  -6.2701  -3.0160 H              1 <1>                0.0000
     44 H44          2.8267  -6.0445  -2.0556 H              1 <1>                0.0000
     45 H45          3.3419  -5.5820  -3.6956 H              1 <1>                0.0000
     46 H46          2.1954  -3.4103  -3.4645 H              1 <1>                0.0000
     47 H47          3.3521  -3.6366  -2.1293 H              1 <1>                0.0000
     48 H48         -0.6666  -3.4197   2.6846 H              1 <1>                0.0000
@<TRIPOS>BOND
    1    1    2 1     
    2    1   27 1     
    3    1   28 1     
    4    1   29 1     
    5    2    3 1     
    6    2   30 1     
    7    2   31 1     
    8    3    4 2     
    9    3    5 am    
   10    5    6 1     
   11    5   32 1     
   12    6   11 ar    
   13    6    7 ar    
   14    7    8 ar    
   15    7   33 1     
   16    8    9 ar    
   17    8   34 1     
   18    9   10 ar    
   19    9   35 1     
   20   10   11 ar    
   21   10   36 1     
   22   11   12 1     
   23   12   13 1     
   24   12   37 1     
   25   13   25 ar    
   26   13   14 ar    
   27   14   15 ar    
   28   15   16 1     
   29   15   23 ar    
   30   16   17 1     
   31   16   38 1     
   32   17   22 1     
   33   17   18 1     
   34   17   39 1     
   35   18   19 1     
   36   18   40 1     
   37   18   41 1     
   38   19   20 1     
   39   19   42 1     
   40   19   43 1     
   41   20   21 1     
   42   21   22 1     
   43   21   44 1     
   44   21   45 1     
   45   22   46 1     
   46   22   47 1     
   47   23   24 ar    
   48   24   25 ar    
   49   24   48 1     
   50   25   26 1     
@<TRIPOS>SUBSTRUCTURE
      1 ****           1
@<TRIPOS>SET
DONOR_HYDROGENS      STATIC     ATOMS    <user>   **** ""
3 32 37 38
ATOM$RED        STATIC     ATOMS    COLORGROUP SYSTEM
3 32 37 38
