#       Name:                CSG
#       Creating user name   gbret
#       Creation time:       Fri Sep  9 06:00:34 2016


#       File generated by GOLD software.
#

@<TRIPOS>MOLECULE
CSG
    43    44     1
SMALL
NO_CHARGES


@<TRIPOS>ATOM
      1 N1           2.0931   6.3019   0.1808 N.pl3          1 <1>                0.0000
      2 C2           2.1118   4.9264   0.1732 C.2            1 <1>                0.0000
      3 C3           0.9027   4.2009   0.1750 C.2            1 <1>                0.0000
      4 C4           0.9498   2.8477   0.1669 C.2            1 <1>                0.0000
      5 N5           2.1608   2.2230   0.1574 N.am           1 <1>                0.0000
      6 C6           2.2258   0.7595   0.1481 C.3            1 <1>                0.0000
      7 O7           0.8994   0.1980   0.0419 O.3            1 <1>                0.0000
      8 C8           1.0934  -1.1462  -0.4493 C.3            1 <1>                0.0000
      9 C9          -0.1954  -1.6726  -1.0839 C.3            1 <1>                0.0000
     10 O10         -1.1966  -1.8219  -0.0751 O.3            1 <1>                0.0000
     11 P11         -2.6829  -2.3563  -0.3871 P.3            1 <1>                0.0000
     12 O12         -3.4139  -1.3439  -1.2969 O.co2          1 <1>                0.0000
     13 O13         -2.5991  -3.7237  -1.1015 O.co2          1 <1>                0.0000
     14 O14         -3.4948  -2.5210   0.9934 O.3            1 <1>                0.0000
     15 P15         -4.8024  -3.3528   1.4295 P.3            1 <1>                0.0000
     16 O16         -6.0645  -2.6584   0.8710 O.co2          1 <1>                0.0000
     17 O17         -4.7118  -4.7881   0.8648 O.co2          1 <1>                0.0000
     18 O18         -4.8893  -3.4127   3.0360 O.3            1 <1>                0.0000
     19 P19         -5.6541  -4.3708   4.0798 P.3            1 <1>                0.0000
     20 O20         -4.8486  -5.7034   4.2523 O.co2          1 <1>                0.0000
     21 O21         -5.7696  -3.6474   5.4646 O.co2          1 <1>                0.0000
     22 O22         -7.0881  -4.6938   3.5380 O.co2          1 <1>                0.0000
     23 C23          2.2050  -1.0205  -1.5147 C.3            1 <1>                0.0000
     24 O24          1.6358  -0.8771  -2.8176 O.3            1 <1>                0.0000
     25 C25          2.9670   0.2621  -1.1127 C.3            1 <1>                0.0000
     26 N26          2.8897   1.2640  -2.1841 N.4            1 <1>                0.0000
     27 H27          1.9224   1.4800  -2.3735 H              1 <1>                0.0000
     28 H28          3.3713   2.1025  -1.8959 H              1 <1>                0.0000
     29 H29          3.3222   0.8978  -3.0189 H              1 <1>                0.0000
     30 C30          3.2973   2.9435   0.1559 C.2            1 <1>                0.0000
     31 O31          4.3727   2.3676   0.1469 O.2            1 <1>                0.0000
     32 N32          3.2673   4.2750   0.1587 N.2            1 <1>                0.0000
     33 H33          2.9265   6.7983   0.1756 H              1 <1>                0.0000
     34 H34          1.2466   6.7755   0.1873 H              1 <1>                0.0000
     35 H35         -0.0462   4.7166   0.1830 H              1 <1>                0.0000
     36 H36          0.0374   2.2697   0.1684 H              1 <1>                0.0000
     37 H37          2.7223   0.3967   1.0481 H              1 <1>                0.0000
     38 H38          1.4132  -1.8033   0.3594 H              1 <1>                0.0000
     39 H39         -0.5429  -0.9677  -1.8391 H              1 <1>                0.0000
     40 H40         -0.0026  -2.6388  -1.5501 H              1 <1>                0.0000
     41 H41          2.8660  -1.8865  -1.4810 H              1 <1>                0.0000
     42 H42          1.0961  -1.6296  -3.0961 H              1 <1>                0.0000
     43 H43          4.0063   0.0313  -0.8785 H              1 <1>                0.0000
@<TRIPOS>BOND
    1    1    2 1     
    2    1   33 1     
    3    1   34 1     
    4    2   32 2     
    5    2    3 1     
    6    3    4 2     
    7    3   35 1     
    8    4    5 1     
    9    4   36 1     
   10    5    6 1     
   11    5   30 am    
   12    6   25 1     
   13    6    7 1     
   14    6   37 1     
   15    7    8 1     
   16    8    9 1     
   17    8   23 1     
   18    8   38 1     
   19    9   10 1     
   20    9   39 1     
   21    9   40 1     
   22   10   11 1     
   23   11   12 ar    
   24   11   13 ar    
   25   11   14 1     
   26   14   15 1     
   27   15   16 ar    
   28   15   17 ar    
   29   15   18 1     
   30   18   19 1     
   31   19   20 ar    
   32   19   21 ar    
   33   19   22 ar    
   34   23   24 1     
   35   23   25 1     
   36   23   41 1     
   37   24   42 1     
   38   25   26 1     
   39   25   43 1     
   40   26   27 1     
   41   26   28 1     
   42   26   29 1     
   43   30   31 2     
   44   30   32 1     
@<TRIPOS>SUBSTRUCTURE
      1 ****           1
@<TRIPOS>SET
DONOR_HYDROGENS      STATIC     ATOMS    <user>   **** ""
6 33 34 42 27 28 29
ATOM$RED        STATIC     ATOMS    COLORGROUP SYSTEM
6 33 34 42 27 28 29
