#       Name:                CYI
#       Creating user name   gbret
#       Creation time:       Fri Sep  9 06:08:36 2016


#       File generated by GOLD software.
#

@<TRIPOS>MOLECULE
CYI
    19    19     1
SMALL
NO_CHARGES


@<TRIPOS>ATOM
      1 C1          -0.2981  -3.6220  -0.6083 C.1            1 <1>                0.0000
      2 N2          -0.3135  -2.4862  -0.6021 N.1            1 <1>                0.0000
      3 C3          -0.3329  -1.0563  -0.5942 C.3            1 <1>                0.0000
      4 C4          -1.0491  -0.5629   0.6646 C.3            1 <1>                0.0000
      5 C5          -1.0698   0.9669   0.6730 C.3            1 <1>                0.0000
      6 C6           0.3656   1.4965   0.6621 C.3            1 <1>                0.0000
      7 C7           1.0817   1.0031  -0.5967 C.3            1 <1>                0.0000
      8 C8           1.1025  -0.5267  -0.6051 C.3            1 <1>                0.0000
      9 H9          -0.8601  -0.6952  -1.4773 H              1 <1>                0.0000
     10 H10         -2.0716  -0.9402   0.6723 H              1 <1>                0.0000
     11 H11         -0.5219  -0.9240   1.5476 H              1 <1>                0.0000
     12 H12         -1.5970   1.3280  -0.2101 H              1 <1>                0.0000
     13 H13         -1.5800   1.3185   1.5698 H              1 <1>                0.0000
     14 H14          0.3508   2.5864   0.6681 H              1 <1>                0.0000
     15 H15          0.8928   1.1354   1.5452 H              1 <1>                0.0000
     16 H16          0.5545   1.3642  -1.4797 H              1 <1>                0.0000
     17 H17          2.1043   1.3804  -0.6044 H              1 <1>                0.0000
     18 H18          1.6297  -0.8878   0.2780 H              1 <1>                0.0000
     19 H19          1.6127  -0.8783  -1.5019 H              1 <1>                0.0000
@<TRIPOS>BOND
    1    1    2 3     
    2    2    3 1     
    3    3    8 1     
    4    3    4 1     
    5    3    9 1     
    6    4    5 1     
    7    4   10 1     
    8    4   11 1     
    9    5    6 1     
   10    5   12 1     
   11    5   13 1     
   12    6    7 1     
   13    6   14 1     
   14    6   15 1     
   15    7    8 1     
   16    7   16 1     
   17    7   17 1     
   18    8   18 1     
   19    8   19 1     
@<TRIPOS>SUBSTRUCTURE
      1 ****           1
