#       Name:                CYW
#       Creating user name   gbret
#       Creation time:       Fri Sep  9 06:09:36 2016


#       File generated by GOLD software.
#

@<TRIPOS>MOLECULE
CYW
    23    22     1
SMALL
NO_CHARGES


@<TRIPOS>ATOM
      1 C1           2.7953   2.0663   0.8534 C.3            1 <1>                0.0000
      2 C2           2.8161   0.5364   0.8450 C.3            1 <1>                0.0000
      3 O3           3.5072   0.0631   2.0027 O.3            1 <1>                0.0000
      4 C4           1.4023   0.0148   0.8557 C.2            1 <1>                0.0000
      5 O5           0.9959  -0.6169   1.8086 O.2            1 <1>                0.0000
      6 S6           0.3695   0.3136  -0.4766 S.3            1 <1>                0.0000
      7 C7          -1.1302  -0.5236   0.0943 C.3            1 <1>                0.0000
      8 C8          -2.2257  -0.3862  -0.9650 C.3            1 <1>                0.0000
      9 N9          -1.8213  -1.1009  -2.1830 N.4            1 <1>                0.0000
     10 H10         -1.6807  -2.0770  -1.9693 H              1 <1>                0.0000
     11 H11         -2.5438  -1.0103  -2.8816 H              1 <1>                0.0000
     12 H12         -0.9619  -0.7065  -2.5349 H              1 <1>                0.0000
     13 C13         -3.5093  -0.9754  -0.4395 C.2            1 <1>                0.0000
     14 O14         -4.2967  -0.2737   0.1722 O.co2          1 <1>                0.0000
     15 O15         -3.7605  -2.1538  -0.6261 O.co2          1 <1>                0.0000
     16 H16          3.8179   2.4436   0.8457 H              1 <1>                0.0000
     17 H17          2.2681   2.4273  -0.0296 H              1 <1>                0.0000
     18 H18          2.2851   2.4178   1.7502 H              1 <1>                0.0000
     19 H19          3.3263   0.1849  -0.0518 H              1 <1>                0.0000
     20 H20          3.1078   0.3384   2.8392 H              1 <1>                0.0000
     21 H21         -0.9161  -1.5793   0.2607 H              1 <1>                0.0000
     22 H22         -1.4672  -0.0699   1.0264 H              1 <1>                0.0000
     23 H23         -2.3776   0.6682  -1.1959 H              1 <1>                0.0000
@<TRIPOS>BOND
    1    1    2 1     
    2    1   16 1     
    3    1   17 1     
    4    1   18 1     
    5    2    3 1     
    6    2    4 1     
    7    2   19 1     
    8    3   20 1     
    9    4    5 2     
   10    4    6 1     
   11    6    7 1     
   12    7    8 1     
   13    7   21 1     
   14    7   22 1     
   15    8    9 1     
   16    8   13 1     
   17    8   23 1     
   18    9   10 1     
   19    9   11 1     
   20    9   12 1     
   21   13   14 ar    
   22   13   15 ar    
@<TRIPOS>SUBSTRUCTURE
      1 ****           1
@<TRIPOS>SET
DONOR_HYDROGENS      STATIC     ATOMS    <user>   **** ""
4 20 10 11 12
ATOM$RED        STATIC     ATOMS    COLORGROUP SYSTEM
4 20 10 11 12
