#       Name:                D67
#       Creating user name   gbret
#       Creation time:       Fri Sep  9 06:18:58 2016


#       File generated by GOLD software.
#

@<TRIPOS>MOLECULE
D67
    37    39     1
SMALL
NO_CHARGES


@<TRIPOS>ATOM
      1 C1           0.8266   3.3464   1.4759 C.3            1 <1>                0.0000
      2 C2           0.6020   1.8563   1.4940 C.2            1 <1>                0.0000
      3 C3           0.1286   1.2142   0.3524 C.2            1 <1>                0.0000
      4 C4          -0.0711  -0.1524   0.3864 C.2            1 <1>                0.0000
      5 N5          -0.5381  -0.8219  -0.7240 N.pl3          1 <1>                0.0000
      6 C6          -0.6584  -0.1519  -1.9448 C.ar           1 <1>                0.0000
      7 C7           0.3411   0.7174  -2.3632 C.ar           1 <1>                0.0000
      8 C8           0.2193   1.3775  -3.5702 C.ar           1 <1>                0.0000
      9 C9          -0.8961   1.1738  -4.3619 C.ar           1 <1>                0.0000
     10 C10         -1.8929   0.3091  -3.9484 C.ar           1 <1>                0.0000
     11 C11         -1.7749  -0.3582  -2.7450 C.ar           1 <1>                0.0000
     12 C12         -1.0258   1.8962  -5.6781 C.3            1 <1>                0.0000
     13 F13         -0.4525   1.1226  -6.6931 F              1 <1>                0.0000
     14 F14         -2.3791   2.1089  -5.9619 F              1 <1>                0.0000
     15 F15         -0.3662   3.1275  -5.6012 F              1 <1>                0.0000
     16 N16          0.2035  -0.8269   1.5415 N.pl3          1 <1>                0.0000
     17 N17          0.1166  -2.1748   1.9123 N.2            1 <1>                0.0000
     18 C18          0.5125  -2.2563   3.1591 C.2            1 <1>                0.0000
     19 N19          0.8440  -1.0496   3.6014 N.2            1 <1>                0.0000
     20 C20          0.6665  -0.1536   2.6367 C.2            1 <1>                0.0000
     21 N21          0.8598   1.1693   2.5871 N.2            1 <1>                0.0000
     22 C22          0.5802  -3.5264   3.9675 C.3            1 <1>                0.0000
     23 C23          1.0906  -3.2089   5.3744 C.3            1 <1>                0.0000
     24 F24         -0.6956  -4.0943   4.0513 F              1 <1>                0.0000
     25 F25          1.4521  -4.4278   3.3475 F              1 <1>                0.0000
     26 H26          1.8454   3.5563   1.1503 H              1 <1>                0.0000
     27 H27          0.1217   3.8117   0.7869 H              1 <1>                0.0000
     28 H28          0.6750   3.7488   2.4775 H              1 <1>                0.0000
     29 H29         -0.0796   1.7763  -0.5460 H              1 <1>                0.0000
     30 H30         -0.7832  -1.7581  -0.6584 H              1 <1>                0.0000
     31 H31          1.2122   0.8772  -1.7452 H              1 <1>                0.0000
     32 H32          0.9958   2.0537  -3.8959 H              1 <1>                0.0000
     33 H33         -2.7627   0.1522  -4.5691 H              1 <1>                0.0000
     34 H34         -2.5538  -1.0334  -2.4227 H              1 <1>                0.0000
     35 H35          0.4112  -2.5065   5.8575 H              1 <1>                0.0000
     36 H36          1.1395  -4.1275   5.9591 H              1 <1>                0.0000
     37 H37          2.0846  -2.7664   5.3091 H              1 <1>                0.0000
@<TRIPOS>BOND
    1    1    2 1     
    2    1   26 1     
    3    1   27 1     
    4    1   28 1     
    5    2   21 2     
    6    2    3 1     
    7    3    4 2     
    8    3   29 1     
    9    4    5 1     
   10    4   16 1     
   11    5    6 1     
   12    5   30 1     
   13    6   11 ar    
   14    6    7 ar    
   15    7    8 ar    
   16    7   31 1     
   17    8    9 ar    
   18    8   32 1     
   19    9   10 ar    
   20    9   12 1     
   21   10   11 ar    
   22   10   33 1     
   23   11   34 1     
   24   12   13 1     
   25   12   14 1     
   26   12   15 1     
   27   16   20 1     
   28   16   17 1     
   29   17   18 2     
   30   18   19 1     
   31   18   22 1     
   32   19   20 2     
   33   20   21 1     
   34   22   23 1     
   35   22   24 1     
   36   22   25 1     
   37   23   35 1     
   38   23   36 1     
   39   23   37 1     
@<TRIPOS>SUBSTRUCTURE
      1 ****           1
@<TRIPOS>SET
DONOR_HYDROGENS      STATIC     ATOMS    <user>   **** ""
1 30
ATOM$RED        STATIC     ATOMS    COLORGROUP SYSTEM
1 30
