#       Name:                D7K
#       Creating user name   gbret
#       Creation time:       Fri Sep  9 06:20:19 2016


#       File generated by GOLD software.
#

@<TRIPOS>MOLECULE
D7K
    63    65     1
SMALL
NO_CHARGES


@<TRIPOS>ATOM
      1 C1          -4.4750   1.6708   0.6275 C.3            1 <1>                0.0000
      2 O2          -3.4416   0.6902   0.7393 O.3            1 <1>                0.0000
      3 P3          -2.3230   0.7232   1.8969 P.3            1 <1>                0.0000
      4 O4          -1.4289   1.9697   1.7136 O.co2          1 <1>                0.0000
      5 O5          -3.0128   0.7827   3.2780 O.co2          1 <1>                0.0000
      6 C6          -1.2976  -0.7806   1.7940 C.3            1 <1>                0.0000
      7 O7          -2.1402  -1.9345   1.8216 O.3            1 <1>                0.0000
      8 C8          -0.5098  -0.7645   0.5095 C.2            1 <1>                0.0000
      9 S9          -0.2560  -2.1210  -0.5000 S.3            1 <1>                0.0000
     10 C10          0.6855  -1.1290  -1.6109 C.2            1 <1>                0.0000
     11 C11          1.3363  -1.5999  -2.8860 C.3            1 <1>                0.0000
     12 C12          2.7579  -2.0795  -2.5860 C.3            1 <1>                0.0000
     13 O13          3.3751  -2.5260  -3.7951 O.3            1 <1>                0.0000
     14 P14          4.8783  -3.0997  -3.8523 P.3            1 <1>                0.0000
     15 O15          5.8725  -1.9769  -3.4808 O.co2          1 <1>                0.0000
     16 O16          5.0224  -4.2673  -2.8509 O.co2          1 <1>                0.0000
     17 O17          5.1953  -3.6266  -5.3403 O.3            1 <1>                0.0000
     18 P18          6.2841  -4.6376  -5.9604 P.3            1 <1>                0.0000
     19 O19          5.8159  -6.1148  -5.7300 O.co2          1 <1>                0.0000
     20 O20          6.4298  -4.3696  -7.4971 O.co2          1 <1>                0.0000
     21 O21          7.6660  -4.4121  -5.2577 O.co2          1 <1>                0.0000
     22 C22          0.7199   0.1148  -1.1235 C.2            1 <1>                0.0000
     23 C23          1.4421   1.2420  -1.8156 C.3            1 <1>                0.0000
     24 N24          0.0662   0.2761   0.0093 N.pl3          1 <1>                0.0000
     25 C25          0.0050   1.5785   0.6775 C.3            1 <1>                0.0000
     26 C26         -1.3130   2.2404   0.3682 C.ar           1 <1>                0.0000
     27 C27         -1.5408   2.8231  -0.8632 C.ar           1 <1>                0.0000
     28 N28         -2.7120   3.3964  -1.1005 N.ar           1 <1>                0.0000
     29 C29         -3.6565   3.4172  -0.1815 C.ar           1 <1>                0.0000
     30 C30         -4.9719   4.0809  -0.4979 C.3            1 <1>                0.0000
     31 N31         -3.4827   2.8734   1.0059 N.ar           1 <1>                0.0000
     32 C32         -2.3366   2.2748   1.3171 C.ar           1 <1>                0.0000
     33 N33         -2.1574   1.7041   2.5667 N.pl3          1 <1>                0.0000
     34 C34         -0.3493  -0.8229   2.9644 C.ar           1 <1>                0.0000
     35 C35          0.7215   0.0497   3.0184 C.ar           1 <1>                0.0000
     36 C36          1.5914   0.0109   4.0920 C.ar           1 <1>                0.0000
     37 C37          1.3903  -0.9003   5.1119 C.ar           1 <1>                0.0000
     38 C38          0.3190  -1.7723   5.0584 C.ar           1 <1>                0.0000
     39 C39         -0.5533  -1.7306   3.9869 C.ar           1 <1>                0.0000
     40 H40         -4.0844   2.5543   0.1227 H              1 <1>                0.0000
     41 H41         -5.3046   1.2604   0.0518 H              1 <1>                0.0000
     42 H42         -4.8243   1.9456   1.6228 H              1 <1>                0.0000
     43 H43         -2.6777  -2.0099   2.6219 H              1 <1>                0.0000
     44 H44          0.7572  -2.4214  -3.3076 H              1 <1>                0.0000
     45 H45          1.3735  -0.7774  -3.6002 H              1 <1>                0.0000
     46 H46          3.3371  -1.2580  -2.1644 H              1 <1>                0.0000
     47 H47          2.7208  -2.9020  -1.8718 H              1 <1>                0.0000
     48 H48          0.7606   1.7415  -2.5043 H              1 <1>                0.0000
     49 H49          1.7965   1.9567  -1.0729 H              1 <1>                0.0000
     50 H50          2.2914   0.8430  -2.3703 H              1 <1>                0.0000
     51 H51          0.0976   1.4389   1.7546 H              1 <1>                0.0000
     52 H52          0.8203   2.2082   0.3213 H              1 <1>                0.0000
     53 H53         -0.7736   2.8122  -1.6233 H              1 <1>                0.0000
     54 H54         -5.6541   3.3482  -0.9292 H              1 <1>                0.0000
     55 H55         -5.4043   4.4852   0.4173 H              1 <1>                0.0000
     56 H56         -4.8089   4.8892  -1.2107 H              1 <1>                0.0000
     57 H57         -1.3156   1.2761   2.7884 H              1 <1>                0.0000
     58 H58         -2.8739   1.7324   3.2201 H              1 <1>                0.0000
     59 H59          0.8786   0.7616   2.2215 H              1 <1>                0.0000
     60 H60          2.4283   0.6922   4.1338 H              1 <1>                0.0000
     61 H61          2.0703  -0.9311   5.9503 H              1 <1>                0.0000
     62 H62          0.1621  -2.4845   5.8551 H              1 <1>                0.0000
     63 H63         -1.3903  -2.4119   3.9451 H              1 <1>                0.0000
@<TRIPOS>BOND
    1    1    2 1     
    2    1   40 1     
    3    1   41 1     
    4    1   42 1     
    5    2    3 1     
    6    3    4 ar    
    7    3    5 ar    
    8    3    6 1     
    9    6    7 1     
   10    6    8 1     
   11    6   34 1     
   12    7   43 1     
   13    8   24 2     
   14    8    9 1     
   15    9   10 1     
   16   10   11 1     
   17   10   22 2     
   18   11   12 1     
   19   11   44 1     
   20   11   45 1     
   21   12   13 1     
   22   12   46 1     
   23   12   47 1     
   24   13   14 1     
   25   14   15 ar    
   26   14   16 ar    
   27   14   17 1     
   28   17   18 1     
   29   18   19 ar    
   30   18   20 ar    
   31   18   21 ar    
   32   22   23 1     
   33   22   24 1     
   34   23   48 1     
   35   23   49 1     
   36   23   50 1     
   37   24   25 1     
   38   25   26 1     
   39   25   51 1     
   40   25   52 1     
   41   26   32 ar    
   42   26   27 ar    
   43   27   28 ar    
   44   27   53 1     
   45   28   29 ar    
   46   29   30 1     
   47   29   31 ar    
   48   30   54 1     
   49   30   55 1     
   50   30   56 1     
   51   31   32 ar    
   52   32   33 1     
   53   33   57 1     
   54   33   58 1     
   55   34   39 ar    
   56   34   35 ar    
   57   35   36 ar    
   58   35   59 1     
   59   36   37 ar    
   60   36   60 1     
   61   37   38 ar    
   62   37   61 1     
   63   38   39 ar    
   64   38   62 1     
   65   39   63 1     
@<TRIPOS>SUBSTRUCTURE
      1 ****           1
@<TRIPOS>SET
DONOR_HYDROGENS      STATIC     ATOMS    <user>   **** ""
3 43 57 58
ATOM$RED        STATIC     ATOMS    COLORGROUP SYSTEM
3 43 57 58
