#       Name:                DAP
#       Creating user name   gbret
#       Creation time:       Fri Sep  9 06:23:45 2016


#       File generated by GOLD software.
#

@<TRIPOS>MOLECULE
DAP
    38    40     1
SMALL
NO_CHARGES


@<TRIPOS>ATOM
      1 N1           4.8983   4.5731   0.1309 N.pl3          1 <1>                0.0000
      2 C2           4.9164   3.2410   0.1236 C.2            1 <1>                0.0000
      3 N3           6.0790   2.5907   0.1090 N.pl3          1 <1>                0.0000
      4 H4           6.9123   3.0872   0.1036 H              1 <1>                0.0000
      5 H5           6.0921   1.6208   0.1036 H              1 <1>                0.0000
      6 C6           3.6464   2.4846   0.1317 C.ar           1 <1>                0.0000
      7 C7           2.5145   3.0266   0.7453 C.ar           1 <1>                0.0000
      8 C8           1.3321   2.3227   0.7525 C.ar           1 <1>                0.0000
      9 C9           1.2636   1.0658   0.1460 C.ar           1 <1>                0.0000
     10 C10          2.3958   0.5238  -0.4677 C.ar           1 <1>                0.0000
     11 C11          3.5767   1.2303  -0.4793 C.ar           1 <1>                0.0000
     12 C12         -0.0056   0.3098   0.1541 C.2            1 <1>                0.0000
     13 C13         -1.1687   0.7335   0.7118 C.2            1 <1>                0.0000
     14 C14         -2.1402  -0.2756   0.5058 C.ar           1 <1>                0.0000
     15 C15         -3.4933  -0.3919   0.8549 C.ar           1 <1>                0.0000
     16 C16         -4.1909  -1.5101   0.5139 C.ar           1 <1>                0.0000
     17 C17         -3.5660  -2.5512  -0.1867 C.ar           1 <1>                0.0000
     18 C18         -2.2234  -2.4524  -0.5417 C.ar           1 <1>                0.0000
     19 C19         -1.5037  -1.3174  -0.1987 C.ar           1 <1>                0.0000
     20 N20         -0.1962  -0.9314  -0.4075 N.pl3          1 <1>                0.0000
     21 H21          0.4786  -1.4507  -0.8721 H              1 <1>                0.0000
     22 C22         -4.3355  -3.7590  -0.5496 C.2            1 <1>                0.0000
     23 N23         -5.6206  -3.8570  -0.2109 N.pl3          1 <1>                0.0000
     24 N24         -3.7445  -4.7504  -1.2156 N.pl3          1 <1>                0.0000
     25 H25         -2.8091  -4.6791  -1.4622 H              1 <1>                0.0000
     26 H26         -4.2498  -5.5434  -1.4541 H              1 <1>                0.0000
     27 H27          5.7317   5.0695   0.1257 H              1 <1>                0.0000
     28 H28          4.0518   5.0466   0.1375 H              1 <1>                0.0000
     29 H29          2.5676   3.9980   1.2144 H              1 <1>                0.0000
     30 H30          0.4571   2.7416   1.2272 H              1 <1>                0.0000
     31 H31          2.3432  -0.4478  -0.9362 H              1 <1>                0.0000
     32 H32          4.4519   0.8114  -0.9537 H              1 <1>                0.0000
     33 H33         -1.3248   1.6725   1.2219 H              1 <1>                0.0000
     34 H34         -3.9821   0.4057   1.3946 H              1 <1>                0.0000
     35 H35         -5.2327  -1.5959   0.7854 H              1 <1>                0.0000
     36 H36         -1.7444  -3.2561  -1.0812 H              1 <1>                0.0000
     37 H37         -6.0508  -3.1353   0.2739 H              1 <1>                0.0000
     38 H38         -6.1259  -4.6500  -0.4492 H              1 <1>                0.0000
@<TRIPOS>BOND
    1    1    2 2     
    2    1   27 1     
    3    1   28 1     
    4    2    3 1     
    5    2    6 1     
    6    3    4 1     
    7    3    5 1     
    8    6   11 ar    
    9    6    7 ar    
   10    7    8 ar    
   11    7   29 1     
   12    8    9 ar    
   13    8   30 1     
   14    9   10 ar    
   15    9   12 1     
   16   10   11 ar    
   17   10   31 1     
   18   11   32 1     
   19   12   20 1     
   20   12   13 2     
   21   13   14 1     
   22   13   33 1     
   23   14   19 ar    
   24   14   15 ar    
   25   15   16 ar    
   26   15   34 1     
   27   16   17 ar    
   28   16   35 1     
   29   17   18 ar    
   30   17   22 1     
   31   18   19 ar    
   32   18   36 1     
   33   19   20 1     
   34   20   21 1     
   35   22   23 2     
   36   22   24 1     
   37   23   37 1     
   38   23   38 1     
   39   24   25 1     
   40   24   26 1     
@<TRIPOS>SUBSTRUCTURE
      1 ****           1
@<TRIPOS>SET
DONOR_HYDROGENS      STATIC     ATOMS    <user>   **** ""
9 27 28 4 5 21 37 38 25 26
ATOM$RED        STATIC     ATOMS    COLORGROUP SYSTEM
9 27 28 4 5 21 37 38 25 26
