#       Name:                DDC
#       Creating user name   gbret
#       Creation time:       Fri Sep  9 06:29:19 2016


#       File generated by GOLD software.
#

@<TRIPOS>MOLECULE
DDC
    30    32     1
SMALL
NO_CHARGES


@<TRIPOS>ATOM
      1 O1          -0.1029   4.7890  -2.1445 O.3            1 <1>                0.0000
      2 C2          -0.0845   3.4324  -2.1520 C.ar           1 <1>                0.0000
      3 C3          -0.0810   2.7487  -3.3654 C.ar           1 <1>                0.0000
      4 C4          -0.0604   1.3832  -3.3861 C.ar           1 <1>                0.0000
      5 C5          -0.0420   0.6707  -2.1836 C.ar           1 <1>                0.0000
      6 C6          -0.0079  -0.7997  -2.1827 C.2            1 <1>                0.0000
      7 O7           0.2171  -1.4333  -3.1928 O.2            1 <1>                0.0000
      8 C8          -0.2684  -1.4838  -0.8526 C.3            1 <1>                0.0000
      9 C9           0.4537  -0.6654   0.2278 C.3            1 <1>                0.0000
     10 O10         -0.0415   0.6734   0.2163 O.3            1 <1>                0.0000
     11 C11         -0.0502   1.3529  -0.9540 C.ar           1 <1>                0.0000
     12 C12         -0.0637   2.7384  -0.9510 C.ar           1 <1>                0.0000
     13 C13          0.2018  -1.2832   1.5791 C.ar           1 <1>                0.0000
     14 C14         -0.9903  -1.0444   2.2369 C.ar           1 <1>                0.0000
     15 C15         -1.2214  -1.6111   3.4764 C.ar           1 <1>                0.0000
     16 C16         -0.2605  -2.4170   4.0579 C.ar           1 <1>                0.0000
     17 C17          0.9312  -2.6566   3.3997 C.ar           1 <1>                0.0000
     18 C18          1.1606  -2.0933   2.1583 C.ar           1 <1>                0.0000
     19 H19          0.7750   5.1943  -2.1507 H              1 <1>                0.0000
     20 H20         -0.0949   3.3005  -4.2937 H              1 <1>                0.0000
     21 H21         -0.0588   0.8557  -4.3285 H              1 <1>                0.0000
     22 H22         -1.3391  -1.5042  -0.6490 H              1 <1>                0.0000
     23 H23          0.1257  -2.4998  -0.8741 H              1 <1>                0.0000
     24 H24          1.5245  -0.6589   0.0242 H              1 <1>                0.0000
     25 H25         -0.0622   3.2772  -0.0150 H              1 <1>                0.0000
     26 H26         -1.7410  -0.4148   1.7825 H              1 <1>                0.0000
     27 H27         -2.1525  -1.4239   3.9906 H              1 <1>                0.0000
     28 H28         -0.4408  -2.8592   5.0266 H              1 <1>                0.0000
     29 H29          1.6821  -3.2859   3.8542 H              1 <1>                0.0000
     30 H30          2.0917  -2.2805   1.6440 H              1 <1>                0.0000
@<TRIPOS>BOND
    1    1    2 1     
    2    1   19 1     
    3    2   12 ar    
    4    2    3 ar    
    5    3    4 ar    
    6    3   20 1     
    7    4    5 ar    
    8    4   21 1     
    9    5   11 ar    
   10    5    6 1     
   11    6    7 2     
   12    6    8 1     
   13    8    9 1     
   14    8   22 1     
   15    8   23 1     
   16    9   10 1     
   17    9   13 1     
   18    9   24 1     
   19   10   11 1     
   20   11   12 ar    
   21   12   25 1     
   22   13   18 ar    
   23   13   14 ar    
   24   14   15 ar    
   25   14   26 1     
   26   15   16 ar    
   27   15   27 1     
   28   16   17 ar    
   29   16   28 1     
   30   17   18 ar    
   31   17   29 1     
   32   18   30 1     
@<TRIPOS>SUBSTRUCTURE
      1 ****           1
@<TRIPOS>SET
DONOR_HYDROGENS      STATIC     ATOMS    <user>   **** ""
1 19
ATOM$RED        STATIC     ATOMS    COLORGROUP SYSTEM
1 19
