#       Name:                DEH
#       Creating user name   gbret
#       Creation time:       Fri Sep  9 06:31:23 2016


#       File generated by GOLD software.
#

@<TRIPOS>MOLECULE
DEH
    42    45     1
SMALL
NO_CHARGES


@<TRIPOS>ATOM
      1 C1          -2.6182   5.1177  -4.0032 C.3            1 <1>                0.0000
      2 O2          -2.5988   3.6888  -4.0111 O.3            1 <1>                0.0000
      3 C3          -1.9745   3.0740  -2.9707 C.ar           1 <1>                0.0000
      4 C4          -1.3980   3.8449  -1.9604 C.ar           1 <1>                0.0000
      5 C5          -0.7598   3.2588  -0.9087 C.ar           1 <1>                0.0000
      6 C6          -0.6745   1.8613  -0.8366 C.ar           1 <1>                0.0000
      7 C7          -0.0014   1.2056   0.2065 C.ar           1 <1>                0.0000
      8 C8           0.0438  -0.1765   0.2103 C.ar           1 <1>                0.0000
      9 C9           0.8007  -0.8688   1.2833 C.ar           1 <1>                0.0000
     10 C10          1.1749  -0.1936   2.4417 C.ar           1 <1>                0.0000
     11 C11          1.8703  -0.8665   3.4311 C.ar           1 <1>                0.0000
     12 O12          2.2405  -0.2139   4.5653 O.3            1 <1>                0.0000
     13 C13          2.1911  -2.2121   3.2662 C.ar           1 <1>                0.0000
     14 O14          2.8691  -2.8716   4.2427 O.3            1 <1>                0.0000
     15 C15          3.1659  -4.2498   4.0091 C.3            1 <1>                0.0000
     16 C16          1.8205  -2.8816   2.1086 C.ar           1 <1>                0.0000
     17 C17          1.1334  -2.2123   1.1193 C.ar           1 <1>                0.0000
     18 C18          0.7455  -2.9073  -0.1599 C.3            1 <1>                0.0000
     19 C19         -0.5918  -2.3652  -0.6543 C.3            1 <1>                0.0000
     20 N20         -0.5797  -0.9006  -0.7275 N.pl3          1 <1>                0.0000
     21 C21         -1.2043  -0.3312  -1.7372 C.ar           1 <1>                0.0000
     22 C22         -1.2741   1.0636  -1.8478 C.ar           1 <1>                0.0000
     23 C23         -1.9242   1.6938  -2.9247 C.ar           1 <1>                0.0000
     24 O24         -2.4922   0.9529  -3.9121 O.3            1 <1>                0.0000
     25 H25         -1.5956   5.4950  -4.0110 H              1 <1>                0.0000
     26 H26         -3.1454   5.4788  -4.8863 H              1 <1>                0.0000
     27 H27         -3.1284   5.4692  -3.1064 H              1 <1>                0.0000
     28 H28         -1.4583   4.9219  -2.0129 H              1 <1>                0.0000
     29 H29         -0.3206   3.8690  -0.1333 H              1 <1>                0.0000
     30 H30          0.4741   1.7719   0.9936 H              1 <1>                0.0000
     31 H31          0.9243   0.8494   2.5674 H              1 <1>                0.0000
     32 H32          1.5841  -0.2541   5.2742 H              1 <1>                0.0000
     33 H33          3.7078  -4.6547   4.8638 H              1 <1>                0.0000
     34 H34          2.2369  -4.8034   3.8725 H              1 <1>                0.0000
     35 H35          3.7792  -4.3426   3.1129 H              1 <1>                0.0000
     36 H36          2.0704  -3.9248   1.9832 H              1 <1>                0.0000
     37 H37          1.5106  -2.7296  -0.9157 H              1 <1>                0.0000
     38 H38          0.6578  -3.9785   0.0215 H              1 <1>                0.0000
     39 H39         -0.7969  -2.7705  -1.6451 H              1 <1>                0.0000
     40 H40         -1.3797  -2.6811   0.0295 H              1 <1>                0.0000
     41 H41         -1.6694  -0.9486  -2.4914 H              1 <1>                0.0000
     42 H42         -3.4169   0.7222  -3.7484 H              1 <1>                0.0000
@<TRIPOS>BOND
    1    1    2 1     
    2    1   25 1     
    3    1   26 1     
    4    1   27 1     
    5    2    3 1     
    6    3   23 ar    
    7    3    4 ar    
    8    4    5 ar    
    9    4   28 1     
   10    5    6 ar    
   11    5   29 1     
   12    6   22 ar    
   13    6    7 ar    
   14    7    8 ar    
   15    7   30 1     
   16    8   20 ar    
   17    8    9 1     
   18    9   17 ar    
   19    9   10 ar    
   20   10   11 ar    
   21   10   31 1     
   22   11   12 1     
   23   11   13 ar    
   24   12   32 1     
   25   13   14 1     
   26   13   16 ar    
   27   14   15 1     
   28   15   33 1     
   29   15   34 1     
   30   15   35 1     
   31   16   17 ar    
   32   16   36 1     
   33   17   18 1     
   34   18   19 1     
   35   18   37 1     
   36   18   38 1     
   37   19   20 1     
   38   19   39 1     
   39   19   40 1     
   40   20   21 ar    
   41   21   22 ar    
   42   21   41 1     
   43   22   23 ar    
   44   23   24 1     
   45   24   42 1     
@<TRIPOS>SUBSTRUCTURE
      1 ****           1
@<TRIPOS>SET
DONOR_HYDROGENS      STATIC     ATOMS    <user>   **** ""
2 32 42
ATOM$RED        STATIC     ATOMS    COLORGROUP SYSTEM
2 32 42
