#       Name:                DF5
#       Creating user name   gbret
#       Creation time:       Fri Sep  9 06:32:41 2016


#       File generated by GOLD software.
#

@<TRIPOS>MOLECULE
DF5
    39    41     1
SMALL
NO_CHARGES


@<TRIPOS>ATOM
      1 C1          -3.9633   2.1314   3.0182 C.3            1 <1>                0.0000
      2 O2          -3.8401   0.7094   3.0868 O.3            1 <1>                0.0000
      3 C3          -3.1262   0.1037   2.1017 C.ar           1 <1>                0.0000
      4 C4          -2.5507   0.8766   1.0898 C.ar           1 <1>                0.0000
      5 C5          -1.8299   0.2973   0.0898 C.ar           1 <1>                0.0000
      6 C6          -1.6582  -1.0937   0.0687 C.ar           1 <1>                0.0000
      7 N7          -0.9492  -1.6908  -0.9094 N.am           1 <1>                0.0000
      8 C8          -0.7861  -3.0039  -0.9308 C.ar           1 <1>                0.0000
      9 C9          -1.3344  -3.8219   0.0470 C.ar           1 <1>                0.0000
     10 C10         -2.0649  -3.2762   1.0677 C.ar           1 <1>                0.0000
     11 C11         -2.2402  -1.8784   1.0932 C.ar           1 <1>                0.0000
     12 C12         -2.9739  -1.2545   2.1141 C.ar           1 <1>                0.0000
     13 C13         -0.3903  -0.9286  -1.8946 C.2            1 <1>                0.0000
     14 O14         -0.8976  -0.8953  -2.9992 O.2            1 <1>                0.0000
     15 C15          0.8317  -0.1439  -1.6186 C.ar           1 <1>                0.0000
     16 C16          1.4855  -0.2725  -0.3914 C.ar           1 <1>                0.0000
     17 C17          2.6255   0.4624  -0.1406 C.ar           1 <1>                0.0000
     18 C18          3.1215   1.3256  -1.1018 C.ar           1 <1>                0.0000
     19 C19          2.4785   1.4580  -2.3200 C.ar           1 <1>                0.0000
     20 C20          1.3406   0.7252  -2.5860 C.ar           1 <1>                0.0000
     21 S21          4.5780   2.2610  -0.7728 S.o2           1 <1>                0.0000
     22 N22          5.8681   1.3521  -1.2747 N.pl3          1 <1>                0.0000
     23 O23          4.5287   3.3946  -1.6282 O.2            1 <1>                0.0000
     24 O24          4.6816   2.3582   0.6411 O.2            1 <1>                0.0000
     25 H25         -2.9724   2.5841   3.0539 H              1 <1>                0.0000
     26 H26         -4.4562   2.4089   2.0864 H              1 <1>                0.0000
     27 H27         -4.5554   2.4859   3.8619 H              1 <1>                0.0000
     28 H28         -2.6795   1.9488   1.1007 H              1 <1>                0.0000
     29 H29         -1.3919   0.9085  -0.6855 H              1 <1>                0.0000
     30 H30         -0.2123  -3.4502  -1.7296 H              1 <1>                0.0000
     31 H31         -1.1847  -4.8905   0.0023 H              1 <1>                0.0000
     32 H32         -2.4965  -3.9019   1.8349 H              1 <1>                0.0000
     33 H33         -3.4188  -1.8442   2.9019 H              1 <1>                0.0000
     34 H34          1.0993  -0.9457   0.3597 H              1 <1>                0.0000
     35 H35          3.1321   0.3641   0.8081 H              1 <1>                0.0000
     36 H36          2.8706   2.1338  -3.0656 H              1 <1>                0.0000
     37 H37          0.8397   0.8293  -3.5371 H              1 <1>                0.0000
     38 H38          6.6742   1.7881  -1.5925 H              1 <1>                0.0000
     39 H39          5.8176   0.3837  -1.2509 H              1 <1>                0.0000
@<TRIPOS>BOND
    1    1    2 1     
    2    1   25 1     
    3    1   26 1     
    4    1   27 1     
    5    2    3 1     
    6    3   12 ar    
    7    3    4 ar    
    8    4    5 ar    
    9    4   28 1     
   10    5    6 ar    
   11    5   29 1     
   12    6   11 ar    
   13    6    7 ar    
   14    7    8 ar    
   15    7   13 am    
   16    8    9 ar    
   17    8   30 1     
   18    9   10 ar    
   19    9   31 1     
   20   10   11 ar    
   21   10   32 1     
   22   11   12 ar    
   23   12   33 1     
   24   13   14 2     
   25   13   15 1     
   26   15   20 ar    
   27   15   16 ar    
   28   16   17 ar    
   29   16   34 1     
   30   17   18 ar    
   31   17   35 1     
   32   18   19 ar    
   33   18   21 1     
   34   19   20 ar    
   35   19   36 1     
   36   20   37 1     
   37   21   22 1     
   38   21   23 2     
   39   21   24 2     
   40   22   38 1     
   41   22   39 1     
@<TRIPOS>SUBSTRUCTURE
      1 ****           1
@<TRIPOS>SET
DONOR_HYDROGENS      STATIC     ATOMS    <user>   **** ""
2 38 39
ATOM$RED        STATIC     ATOMS    COLORGROUP SYSTEM
2 38 39
