#       Name:                DHQ
#       Creating user name   installer
#       Creation time:       Mon Jun 30 18:09:03 2008


#       File generated by GOLD software.
#

@<TRIPOS>MOLECULE
DHQ
    23    24     1
SMALL
NO_CHARGES


@<TRIPOS>ATOM
      1 C1          -0.0184   1.5028   0.0103 C.3            1 <1>                0.0000
      2 C2           0.0021  -0.0041   0.0020 C.ar           1 <1>                0.0000
      3 C3           0.0058  -0.6906  -1.2007 C.ar           1 <1>                0.0000
      4 C4           0.0245  -2.0737  -1.2182 C.ar           1 <1>                0.0000
      5 C5           0.0397  -2.7831  -0.0330 C.ar           1 <1>                0.0000
      6 C6           0.0363  -2.0971   1.1781 C.ar           1 <1>                0.0000
      7 C7           0.0507  -2.8206   2.4678 C.2            1 <1>                0.0000
      8 O8           0.3843  -3.9885   2.5153 O.2            1 <1>                0.0000
      9 N9          -0.3108  -2.1670   3.5902 N.am           1 <1>                0.0000
     10 C10         -0.7717  -0.7820   3.5433 C.3            1 <1>                0.0000
     11 C11          0.0146   0.0232   2.5113 C.3            1 <1>                0.0000
     12 C12          0.0228  -0.6997   1.1905 C.ar           1 <1>                0.0000
     13 H13          1.0042   1.8801   0.0026 H              1 <1>                0.0000
     14 H14         -0.5455   1.8639  -0.8728 H              1 <1>                0.0000
     15 H15         -0.5286   1.8543   0.9071 H              1 <1>                0.0000
     16 H16         -0.0063  -0.1425  -2.1312 H              1 <1>                0.0000
     17 H17          0.0270  -2.6003  -2.1611 H              1 <1>                0.0000
     18 H18          0.0536  -3.8629  -0.0460 H              1 <1>                0.0000
     19 H19         -0.2643  -2.6249   4.4440 H              1 <1>                0.0000
     20 H20         -1.8292  -0.7656   3.2797 H              1 <1>                0.0000
     21 H21         -0.6417  -0.3282   4.5257 H              1 <1>                0.0000
     22 H22         -0.4483   1.0021   2.3869 H              1 <1>                0.0000
     23 H23          1.0405   0.1506   2.8568 H              1 <1>                0.0000
@<TRIPOS>BOND
    1    1    2 1     
    2    1   13 1     
    3    1   14 1     
    4    1   15 1     
    5    2   12 ar    
    6    2    3 ar    
    7    3    4 ar    
    8    3   16 1     
    9    4    5 ar    
   10    4   17 1     
   11    5    6 ar    
   12    5   18 1     
   13    6   12 ar    
   14    6    7 1     
   15    7    8 2     
   16    7    9 am    
   17    9   10 1     
   18    9   19 1     
   19   10   11 1     
   20   10   20 1     
   21   10   21 1     
   22   11   12 1     
   23   11   22 1     
   24   11   23 1     
@<TRIPOS>SUBSTRUCTURE
      1 ****           1
@<TRIPOS>SET
DONOR_HYDROGENS      STATIC     ATOMS    <user>   **** ""
1 19
ATOM$RED        STATIC     ATOMS    COLORGROUP SYSTEM
1 19
