#       Name:                DIV
#       Creating user name   gbret
#       Creation time:       Fri Sep  9 06:40:14 2016


#       File generated by GOLD software.
#

@<TRIPOS>MOLECULE
DIV
    19    18     1
SMALL
NO_CHARGES


@<TRIPOS>ATOM
      1 C1          -0.6024   1.5519   1.0661 C.3            1 <1>                0.0000
      2 C2          -0.5816   0.0220   1.0577 C.3            1 <1>                0.0000
      3 C3           0.1345  -0.4714  -0.2011 C.3            1 <1>                0.0000
      4 C4          -0.6055   0.0354  -1.4406 C.3            1 <1>                0.0000
      5 N5           1.5127   0.0371  -0.2115 N.4            1 <1>                0.0000
      6 H6           2.0007  -0.2972   0.6059 H              1 <1>                0.0000
      7 H7           1.9849  -0.2883  -1.0417 H              1 <1>                0.0000
      8 H8           1.4990   1.0460  -0.2060 H              1 <1>                0.0000
      9 C9           0.1549  -1.9782  -0.2094 C.2            1 <1>                0.0000
     10 O10         -0.8925  -2.6021  -0.2027 O.co2          1 <1>                0.0000
     11 O11          1.2189  -2.5734  -0.2227 O.co2          1 <1>                0.0000
     12 H12          0.4202   1.9292   1.0584 H              1 <1>                0.0000
     13 H13         -1.1296   1.9129   0.1831 H              1 <1>                0.0000
     14 H14         -1.1126   1.9034   1.9629 H              1 <1>                0.0000
     15 H15         -0.0544  -0.3390   1.9408 H              1 <1>                0.0000
     16 H16         -1.6042  -0.3553   1.0655 H              1 <1>                0.0000
     17 H17         -0.6203   1.1253  -1.4346 H              1 <1>                0.0000
     18 H18         -0.0953  -0.3161  -2.3374 H              1 <1>                0.0000
     19 H19         -1.6281  -0.3418  -1.4329 H              1 <1>                0.0000
@<TRIPOS>BOND
    1    1    2 1     
    2    1   12 1     
    3    1   13 1     
    4    1   14 1     
    5    2    3 1     
    6    2   15 1     
    7    2   16 1     
    8    3    4 1     
    9    3    5 1     
   10    3    9 1     
   11    4   17 1     
   12    4   18 1     
   13    4   19 1     
   14    5    6 1     
   15    5    7 1     
   16    5    8 1     
   17    9   10 ar    
   18    9   11 ar    
@<TRIPOS>SUBSTRUCTURE
      1 ****           1
@<TRIPOS>SET
DONOR_HYDROGENS      STATIC     ATOMS    <user>   **** ""
3 6 7 8
ATOM$RED        STATIC     ATOMS    COLORGROUP SYSTEM
3 6 7 8
