#       Name:                DK5
#       Creating user name   gbret
#       Creation time:       Fri Sep  9 06:41:14 2016


#       File generated by GOLD software.
#

@<TRIPOS>MOLECULE
DK5
    44    46     1
SMALL
NO_CHARGES


@<TRIPOS>ATOM
      1 O1          -1.1262  -1.5938  -4.1328 O.3            1 <1>                0.0000
      2 C2          -0.0026  -0.8005  -4.5203 C.3            1 <1>                0.0000
      3 C3           0.9028  -0.5721  -3.3083 C.3            1 <1>                0.0000
      4 O4           1.4520  -1.8205  -2.8817 O.3            1 <1>                0.0000
      5 C5           2.2973  -1.7241  -1.7335 C.3            1 <1>                0.0000
      6 C6           3.4897  -0.8191  -2.0539 C.3            1 <1>                0.0000
      7 C7           2.9744   0.5554  -2.4917 C.3            1 <1>                0.0000
      8 F8           4.0549   1.3663  -2.8553 F              1 <1>                0.0000
      9 C9           2.0392   0.3793  -3.6920 C.3            1 <1>                0.0000
     10 O10          2.7704  -0.1688  -4.7907 O.3            1 <1>                0.0000
     11 N11          1.5397  -1.1566  -0.6154 N.am           1 <1>                0.0000
     12 C12          2.1853  -0.4397   0.3460 C.2            1 <1>                0.0000
     13 C13          1.4732   0.0801   1.3751 C.2            1 <1>                0.0000
     14 C14          0.0821  -0.1367   1.4209 C.2            1 <1>                0.0000
     15 N15         -0.6678   0.3821   2.4584 N.am           1 <1>                0.0000
     16 C16         -1.9985   0.1725   2.4986 C.2            1 <1>                0.0000
     17 O17         -2.5387  -0.4731   1.6220 O.2            1 <1>                0.0000
     18 C18         -2.8008   0.7276   3.6086 C.ar           1 <1>                0.0000
     19 C19         -2.1843   1.4746   4.6141 C.ar           1 <1>                0.0000
     20 C20         -2.9392   1.9903   5.6471 C.ar           1 <1>                0.0000
     21 C21         -4.3044   1.7687   5.6881 C.ar           1 <1>                0.0000
     22 C22         -4.9217   1.0289   4.6951 C.ar           1 <1>                0.0000
     23 C23         -4.1795   0.5123   3.6533 C.ar           1 <1>                0.0000
     24 N24         -0.5035  -0.8411   0.4627 N.2            1 <1>                0.0000
     25 C25          0.2086  -1.3415  -0.5461 C.2            1 <1>                0.0000
     26 O26         -0.3537  -1.9859  -1.4158 O.2            1 <1>                0.0000
     27 H27         -1.7444  -1.7786  -4.8531 H              1 <1>                0.0000
     28 H28          0.5568  -1.3189  -5.2991 H              1 <1>                0.0000
     29 H29         -0.3498   0.1601  -4.9007 H              1 <1>                0.0000
     30 H30          0.3208  -0.1347  -2.4971 H              1 <1>                0.0000
     31 H31          2.6569  -2.7168  -1.4625 H              1 <1>                0.0000
     32 H32          4.1123  -0.7088  -1.1660 H              1 <1>                0.0000
     33 H33          4.0767  -1.2613  -2.8589 H              1 <1>                0.0000
     34 H34          2.4306   1.0199  -1.6692 H              1 <1>                0.0000
     35 H35          1.6244   1.3465  -3.9756 H              1 <1>                0.0000
     36 H36          3.5100   0.3807  -5.0841 H              1 <1>                0.0000
     37 H37          3.2530  -0.2874   0.2890 H              1 <1>                0.0000
     38 H38          1.9647   0.6515   2.1486 H              1 <1>                0.0000
     39 H39         -0.2366   0.8974   3.1580 H              1 <1>                0.0000
     40 H40         -1.1188   1.6480   4.5834 H              1 <1>                0.0000
     41 H41         -2.4635   2.5681   6.4258 H              1 <1>                0.0000
     42 H42         -4.8908   2.1747   6.4991 H              1 <1>                0.0000
     43 H43         -5.9876   0.8593   4.7333 H              1 <1>                0.0000
     44 H44         -4.6625  -0.0647   2.8786 H              1 <1>                0.0000
@<TRIPOS>BOND
    1    1    2 1     
    2    1   27 1     
    3    2    3 1     
    4    2   28 1     
    5    2   29 1     
    6    3    9 1     
    7    3    4 1     
    8    3   30 1     
    9    4    5 1     
   10    5    6 1     
   11    5   11 1     
   12    5   31 1     
   13    6    7 1     
   14    6   32 1     
   15    6   33 1     
   16    7    8 1     
   17    7    9 1     
   18    7   34 1     
   19    9   10 1     
   20    9   35 1     
   21   10   36 1     
   22   11   25 am    
   23   11   12 1     
   24   12   13 2     
   25   12   37 1     
   26   13   14 1     
   27   13   38 1     
   28   14   15 1     
   29   14   24 2     
   30   15   16 am    
   31   15   39 1     
   32   16   17 2     
   33   16   18 1     
   34   18   23 ar    
   35   18   19 ar    
   36   19   20 ar    
   37   19   40 1     
   38   20   21 ar    
   39   20   41 1     
   40   21   22 ar    
   41   21   42 1     
   42   22   23 ar    
   43   22   43 1     
   44   23   44 1     
   45   24   25 1     
   46   25   26 2     
@<TRIPOS>SUBSTRUCTURE
      1 ****           1
@<TRIPOS>SET
DONOR_HYDROGENS      STATIC     ATOMS    <user>   **** ""
3 27 36 39
ATOM$RED        STATIC     ATOMS    COLORGROUP SYSTEM
3 27 36 39
