#       Name:                DOG
#       Creating user name   gbret
#       Creation time:       Fri Sep  9 06:48:15 2016


#       File generated by GOLD software.
#

@<TRIPOS>MOLECULE
DOG
    62    66     1
SMALL
NO_CHARGES


@<TRIPOS>ATOM
      1 C1          -1.8738   1.1645   0.0475 C.3            1 <1>                0.0000
      2 C2          -1.8939  -0.3667   0.1142 C.3            1 <1>                0.0000
      3 C3          -3.3044  -0.7464   0.6147 C.3            1 <1>                0.0000
      4 C4          -3.2238  -0.5920   2.1550 C.3            1 <1>                0.0000
      5 C5          -1.7294  -0.3298   2.4932 C.3            1 <1>                0.0000
      6 C6          -1.0182  -0.9145   1.2603 C.3            1 <1>                0.0000
      7 O7          -1.1657  -2.3521   1.3138 O.3            1 <1>                0.0000
      8 C8           0.4337  -0.5960   1.0925 C.3            1 <1>                0.0000
      9 C9           0.9753   0.5010   2.0003 C.3            1 <1>                0.0000
     10 C10          2.5026   0.5428   1.8220 C.3            1 <1>                0.0000
     11 C11          2.8536   0.8194   0.3654 C.3            1 <1>                0.0000
     12 C12          4.3645   0.9214   0.1817 C.3            1 <1>                0.0000
     13 C13          4.6735   1.3169  -1.2640 C.3            1 <1>                0.0000
     14 O14          6.0903   1.3844  -1.4442 O.3            1 <1>                0.0000
     15 C15          4.0856   0.2902  -2.2293 C.3            1 <1>                0.0000
     16 C16          2.5801   0.1517  -2.0175 C.3            1 <1>                0.0000
     17 C17          2.2701  -0.2447  -0.5707 C.3            1 <1>                0.0000
     18 C18          2.8609  -1.6205  -0.2857 C.3            1 <1>                0.0000
     19 C19          0.7537  -0.2517  -0.3635 C.3            1 <1>                0.0000
     20 C20          0.0147  -1.1990  -1.2930 C.3            1 <1>                0.0000
     21 C21         -1.5047  -0.9615  -1.2140 C.3            1 <1>                0.0000
     22 O22         -2.1881  -2.2047  -1.4240 O.3            1 <1>                0.0000
     23 C23         -4.3180   0.2127   0.0457 C.2            1 <1>                0.0000
     24 C24         -4.9170   1.2086   0.6936 C.2            1 <1>                0.0000
     25 C25         -5.8325   1.9035  -0.2153 C.2            1 <1>                0.0000
     26 O26         -6.5229   2.8575   0.0851 O.2            1 <1>                0.0000
     27 O27         -5.7954   1.3292  -1.4322 O.3            1 <1>                0.0000
     28 C28         -4.8428   0.2307  -1.3710 C.3            1 <1>                0.0000
     29 H29         -0.8416   1.5136   0.0233 H              1 <1>                0.0000
     30 H30         -2.3907   1.4957  -0.8532 H              1 <1>                0.0000
     31 H31         -2.3751   1.5729   0.9250 H              1 <1>                0.0000
     32 H32         -3.5394  -1.7677   0.3452 H              1 <1>                0.0000
     33 H33         -3.8315   0.2528   2.4775 H              1 <1>                0.0000
     34 H34         -3.5627  -1.5057   2.6408 H              1 <1>                0.0000
     35 H35         -1.5255   0.7245   2.6210 H              1 <1>                0.0000
     36 H36         -1.4431  -0.8885   3.3879 H              1 <1>                0.0000
     37 H37         -0.7643  -2.7599   2.0934 H              1 <1>                0.0000
     38 H38          0.9822  -1.5229   1.3608 H              1 <1>                0.0000
     39 H39          0.5544   1.4642   1.7273 H              1 <1>                0.0000
     40 H40          0.7443   0.2721   3.0388 H              1 <1>                0.0000
     41 H41          2.9065   1.3434   2.4485 H              1 <1>                0.0000
     42 H42          2.9296  -0.4039   2.1446 H              1 <1>                0.0000
     43 H43          2.4104   1.7894   0.0860 H              1 <1>                0.0000
     44 H44          4.7543   1.6958   0.8497 H              1 <1>                0.0000
     45 H45          4.8508  -0.0191   0.4208 H              1 <1>                0.0000
     46 H46          4.2399   2.2989  -1.4689 H              1 <1>                0.0000
     47 H47          6.3618   1.6303  -2.3391 H              1 <1>                0.0000
     48 H48          4.2672   0.6291  -3.2562 H              1 <1>                0.0000
     49 H49          4.5811  -0.6685  -2.0979 H              1 <1>                0.0000
     50 H50          2.0898   1.1015  -2.2430 H              1 <1>                0.0000
     51 H51          2.1919  -0.6171  -2.6911 H              1 <1>                0.0000
     52 H52          3.9407  -1.5895  -0.4315 H              1 <1>                0.0000
     53 H53          2.6412  -1.9042   0.7435 H              1 <1>                0.0000
     54 H54          2.4234  -2.3517  -0.9655 H              1 <1>                0.0000
     55 H55          0.4354   0.7755  -0.5749 H              1 <1>                0.0000
     56 H56          0.3460  -1.0445  -2.3223 H              1 <1>                0.0000
     57 H57          0.2240  -2.2351  -1.0136 H              1 <1>                0.0000
     58 H58         -1.7985  -0.2720  -2.0202 H              1 <1>                0.0000
     59 H59         -2.0050  -2.6143  -2.2807 H              1 <1>                0.0000
     60 H60         -4.7538   1.4650   1.7300 H              1 <1>                0.0000
     61 H61         -4.0293   0.3995  -2.0766 H              1 <1>                0.0000
     62 H62         -5.3426  -0.7123  -1.5920 H              1 <1>                0.0000
@<TRIPOS>BOND
    1    1    2 1     
    2    1   29 1     
    3    1   30 1     
    4    1   31 1     
    5    2    6 1     
    6    2   21 1     
    7    2    3 1     
    8    3    4 1     
    9    3   23 1     
   10    3   32 1     
   11    4    5 1     
   12    4   33 1     
   13    4   34 1     
   14    5    6 1     
   15    5   35 1     
   16    5   36 1     
   17    6    7 1     
   18    6    8 1     
   19    7   37 1     
   20    8   19 1     
   21    8    9 1     
   22    8   38 1     
   23    9   10 1     
   24    9   39 1     
   25    9   40 1     
   26   10   11 1     
   27   10   41 1     
   28   10   42 1     
   29   11   17 1     
   30   11   12 1     
   31   11   43 1     
   32   12   13 1     
   33   12   44 1     
   34   12   45 1     
   35   13   14 1     
   36   13   15 1     
   37   13   46 1     
   38   14   47 1     
   39   15   16 1     
   40   15   48 1     
   41   15   49 1     
   42   16   17 1     
   43   16   50 1     
   44   16   51 1     
   45   17   18 1     
   46   17   19 1     
   47   18   52 1     
   48   18   53 1     
   49   18   54 1     
   50   19   20 1     
   51   19   55 1     
   52   20   21 1     
   53   20   56 1     
   54   20   57 1     
   55   21   22 1     
   56   21   58 1     
   57   22   59 1     
   58   23   28 1     
   59   23   24 2     
   60   24   25 1     
   61   24   60 1     
   62   25   26 2     
   63   25   27 1     
   64   27   28 1     
   65   28   61 1     
   66   28   62 1     
@<TRIPOS>SUBSTRUCTURE
      1 ****           1
@<TRIPOS>SET
DONOR_HYDROGENS      STATIC     ATOMS    <user>   **** ""
3 37 47 59
ATOM$RED        STATIC     ATOMS    COLORGROUP SYSTEM
3 37 47 59
