@<TRIPOS>MOLECULE
E
  71   78    0    0    0
SMALL
NO_CHARGES


@<TRIPOS>ATOM
   1 O1            -0.0173     1.4248     0.0099 O.3     
   2 C2             0.0021    -0.0041     0.0020 C.3     
   3 C3             0.5548    -0.5637     1.3412 C.3     
   4 C4            -0.6980    -0.5514     2.2433 C.3     
   5 O5            -1.8471    -0.5387     1.3882 O.3     
   6 C6            -1.4355    -0.5821     0.0126 C.3     
   7 C7            -2.3615     0.2815    -0.8463 C.3     
   8 O8            -3.6689    -0.2950    -0.8648 O.3     
   9 P9            -4.9012     0.3522    -1.6740 P.3     
  10 O10           -4.5982     0.3072    -3.2104 O.co2   
  11 O11           -6.2067    -0.4607    -1.3751 O.co2   
  12 O12           -5.0977     1.8399    -1.2238 O.co2   
  13 N13           -0.7171    -1.7513     3.0836 N.pl3   
  14 C14           -1.3673    -2.9177     2.8096 C.2     
  15 N15           -1.1709    -3.7725     3.7710 N.2     
  16 C16           -0.3845    -3.2107     4.7202 C.ar    
  17 C17            0.1438    -3.6429     5.9488 C.ar    
  18 N18           -0.1176    -4.9163     6.4232 N.pl3   
  19 C19            0.4419    -5.3492     7.7061 C.3     
  20 C20           -0.4637    -4.8684     8.8377 C.3     
  21 O21           -1.8124    -5.2611     8.5755 O.3     
  22 C22            0.0176    -5.5115    10.1439 C.3     
  23 O23           -0.6592    -4.9150    11.2521 O.3     
  24 C24           -0.2997    -7.0037    10.0901 C.3     
  25 O25           -1.7154    -7.1863    10.1563 O.3     
  26 C26            0.2207    -7.6148     8.8129 C.ar    
  27 C27            0.3492    -8.9992     8.7857 C.ar    
  28 C28            0.8168    -9.6518     7.6471 C.ar    
  29 C29            0.9580   -11.0601     7.5907 C.ar    
  30 C30            1.4137   -11.6681     6.4718 C.ar    
  31 C31            1.7626   -10.9143     5.3247 C.ar    
  32 C32            2.2344   -11.5221     4.1584 C.ar    
  33 C33            2.5643   -10.7515     3.0603 C.ar    
  34 C34            2.4414    -9.3752     3.0785 C.ar    
  35 C35            1.9735    -8.7290     4.2252 C.ar    
  36 C36            1.8336    -7.3209     4.2847 C.ar    
  37 C37            1.3781    -6.7146     5.4046 C.ar    
  38 C38            1.0276    -7.4729     6.5492 C.ar    
  39 C39            0.5550    -6.8516     7.7166 C.ar    
  40 C40            1.1585    -8.8762     6.5168 C.ar    
  41 C41            1.6321    -9.5080     5.3536 C.ar    
  42 N42            0.9006    -2.8004     6.6440 N.ar    
  43 C43            1.1557    -1.5834     6.1988 C.ar    
  44 N44            0.6828    -1.1359     5.0549 N.ar    
  45 C45           -0.0791    -1.9093     4.2879 C.ar    
  46 H46            0.8606     1.8301     0.0037 H       
  47 H47            0.5712    -0.3821    -0.8472 H       
  48 H48            0.9298    -1.5790     1.2120 H       
  49 H49            1.3293     0.0888     1.7441 H       
  50 H50           -0.6936     0.3403     2.8700 H       
  51 H51           -1.4325    -1.6103    -0.3491 H       
  52 H52           -2.4133     1.2863    -0.4272 H       
  53 H53           -1.9720     0.3315    -1.8631 H       
  54 H54           -1.9586    -3.1046     1.9254 H       
  55 H55           -0.6712    -5.5223     5.9064 H       
  56 H56            1.4333    -4.9136     7.8307 H       
  57 H57           -0.4061    -3.7829     8.9186 H       
  58 H58           -2.4414    -4.9868     9.2568 H       
  59 H59            1.0929    -5.3676    10.2497 H       
  60 H60           -0.4013    -5.2762    12.1112 H       
  61 H61            0.1664    -7.5006    10.9409 H       
  62 H62           -1.9944    -8.1118    10.1273 H       
  63 H63            0.0834    -9.5762     9.6591 H       
  64 H64            0.6985   -11.6564     8.4530 H       
  65 H65            1.5131   -12.7434     6.4529 H       
  66 H66            2.3416   -12.5959     4.1153 H       
  67 H67            2.9273   -11.2363     2.1662 H       
  68 H68            2.7078    -8.7984     2.2052 H       
  69 H69            2.0947    -6.7229     3.4240 H       
  70 H70            1.2805    -5.6393     5.4269 H       
  71 H71            1.7754    -0.9308     6.7959 H       
@<TRIPOS>BOND
   1    1    2 1
   2    1   46 1
   3    2    6 1
   4    2    3 1
   5    2   47 1
   6    3    4 1
   7    3   48 1
   8    3   49 1
   9    4    5 1
  10    4   13 1
  11    4   50 1
  12    5    6 1
  13    6    7 1
  14    6   51 1
  15    7    8 1
  16    7   52 1
  17    7   53 1
  18    8    9 1
  19    9   10 ar
  20    9   11 ar
  21    9   12 ar
  22   13   45 1
  23   13   14 1
  24   14   15 2
  25   14   54 1
  26   15   16 1
  27   16   45 ar
  28   16   17 ar
  29   17   18 1
  30   17   42 ar
  31   18   19 1
  32   18   55 1
  33   19   39 1
  34   19   20 1
  35   19   56 1
  36   20   21 1
  37   20   22 1
  38   20   57 1
  39   21   58 1
  40   22   23 1
  41   22   24 1
  42   22   59 1
  43   23   60 1
  44   24   25 1
  45   24   26 1
  46   24   61 1
  47   25   62 1
  48   26   39 ar
  49   26   27 ar
  50   27   28 ar
  51   27   63 1
  52   28   40 ar
  53   28   29 ar
  54   29   30 ar
  55   29   64 1
  56   30   31 ar
  57   30   65 1
  58   31   41 ar
  59   31   32 ar
  60   32   33 ar
  61   32   66 1
  62   33   34 ar
  63   33   67 1
  64   34   35 ar
  65   34   68 1
  66   35   41 ar
  67   35   36 ar
  68   36   37 ar
  69   36   69 1
  70   37   38 ar
  71   37   70 1
  72   38   39 ar
  73   38   40 ar
  74   40   41 ar
  75   42   43 ar
  76   43   44 ar
  77   43   71 1
  78   44   45 ar





