#       Name:                E02
#       Creating user name   gbret
#       Creation time:       Fri Sep  9 07:05:08 2016


#       File generated by GOLD software.
#

@<TRIPOS>MOLECULE
E02
    35    37     1
SMALL
NO_CHARGES


@<TRIPOS>ATOM
      1 N1           0.1834   4.3269   4.3347 N.pl3          1 <1>                0.0000
      2 S2           0.2059   2.6710   4.3256 S.o2           1 <1>                0.0000
      3 O3           1.5642   2.2891   4.1572 O.2            1 <1>                0.0000
      4 O4          -0.5882   2.2529   5.4274 O.2            1 <1>                0.0000
      5 C5          -0.6424   2.1459   2.8733 C.ar           1 <1>                0.0000
      6 C6           0.0403   1.4698   1.8850 C.ar           1 <1>                0.0000
      7 C7          -0.6349   1.0533   0.7329 C.ar           1 <1>                0.0000
      8 C8          -2.0000   1.3267   0.5927 C.ar           1 <1>                0.0000
      9 C9          -2.6694   2.0035   1.5889 C.ar           1 <1>                0.0000
     10 C10         -1.9951   2.4085   2.7300 C.ar           1 <1>                0.0000
     11 Cl11        -2.8467   3.2607   3.9799 Cl             1 <1>                0.0000
     12 C12          0.0867   0.3317  -0.3264 C.2            1 <1>                0.0000
     13 O13          1.2698   0.0965  -0.2021 O.2            1 <1>                0.0000
     14 C14         -0.6442  -0.1154  -1.5661 C.3            1 <1>                0.0000
     15 N15          0.2882  -0.8061  -2.4604 N.pl3          1 <1>                0.0000
     16 C16          0.9746  -0.2502  -3.4950 C.2            1 <1>                0.0000
     17 N17          1.7121  -1.1501  -4.0772 N.2            1 <1>                0.0000
     18 C18          1.5489  -2.3461  -3.4553 C.ar           1 <1>                0.0000
     19 C19          2.0855  -3.6200  -3.6602 C.ar           1 <1>                0.0000
     20 C20          1.7172  -4.6528  -2.8455 C.ar           1 <1>                0.0000
     21 C21          0.8128  -4.4516  -1.8124 C.ar           1 <1>                0.0000
     22 C22          0.2703  -3.2037  -1.5919 C.ar           1 <1>                0.0000
     23 C23          0.6377  -2.1406  -2.4057 C.ar           1 <1>                0.0000
     24 H24          1.0168   4.8232   4.3294 H              1 <1>                0.0000
     25 H25         -0.6631   4.8004   4.3413 H              1 <1>                0.0000
     26 H26          1.0939   1.2624   1.9996 H              1 <1>                0.0000
     27 H27         -2.5275   1.0084  -0.2943 H              1 <1>                0.0000
     28 H28         -3.7231   2.2153   1.4821 H              1 <1>                0.0000
     29 H29         -1.4506  -0.7939  -1.2876 H              1 <1>                0.0000
     30 H30         -1.0603   0.7536  -2.0759 H              1 <1>                0.0000
     31 H31          0.9157   0.7870  -3.7902 H              1 <1>                0.0000
     32 H32          2.7899  -3.7878  -4.4615 H              1 <1>                0.0000
     33 H33          2.1339  -5.6360  -3.0073 H              1 <1>                0.0000
     34 H34          0.5318  -5.2785  -1.1770 H              1 <1>                0.0000
     35 H35         -0.4334  -3.0526  -0.7867 H              1 <1>                0.0000
@<TRIPOS>BOND
    1    1    2 1     
    2    1   24 1     
    3    1   25 1     
    4    2    3 2     
    5    2    4 2     
    6    2    5 1     
    7    5   10 ar    
    8    5    6 ar    
    9    6    7 ar    
   10    6   26 1     
   11    7    8 ar    
   12    7   12 1     
   13    8    9 ar    
   14    8   27 1     
   15    9   10 ar    
   16    9   28 1     
   17   10   11 1     
   18   12   13 2     
   19   12   14 1     
   20   14   15 1     
   21   14   29 1     
   22   14   30 1     
   23   15   23 1     
   24   15   16 1     
   25   16   17 2     
   26   16   31 1     
   27   17   18 1     
   28   18   23 ar    
   29   18   19 ar    
   30   19   20 ar    
   31   19   32 1     
   32   20   21 ar    
   33   20   33 1     
   34   21   22 ar    
   35   21   34 1     
   36   22   23 ar    
   37   22   35 1     
@<TRIPOS>SUBSTRUCTURE
      1 ****           1
@<TRIPOS>SET
DONOR_HYDROGENS      STATIC     ATOMS    <user>   **** ""
2 24 25
ATOM$RED        STATIC     ATOMS    COLORGROUP SYSTEM
2 24 25
