#       Name:                E1B
#       Creating user name   gbret
#       Creation time:       Fri Sep  9 07:06:22 2016


#       File generated by GOLD software.
#

@<TRIPOS>MOLECULE
E1B
    37    40     1
SMALL
NO_CHARGES


@<TRIPOS>ATOM
      1 O1           4.7322  -1.0787  -1.2272 O.co2          1 <1>                0.0000
      2 C2           4.7328   0.1296  -1.0384 C.2            1 <1>                0.0000
      3 O3           5.7770   0.7609  -1.1215 O.co2          1 <1>                0.0000
      4 C4           3.4731   0.8265  -0.7165 C.ar           1 <1>                0.0000
      5 C5           3.4778   2.2142  -0.5063 C.ar           1 <1>                0.0000
      6 C6           2.3222   2.8710  -0.2083 C.ar           1 <1>                0.0000
      7 C7           1.1193   2.1674  -0.1086 C.ar           1 <1>                0.0000
      8 C8           1.0935   0.7682  -0.3169 C.ar           1 <1>                0.0000
      9 C9           2.2889   0.1063  -0.6288 C.ar           1 <1>                0.0000
     10 N10         -0.0547   0.0755  -0.2249 N.ar           1 <1>                0.0000
     11 C11         -1.2099   0.6259   0.0577 C.ar           1 <1>                0.0000
     12 N12         -2.3438  -0.1624   0.1327 N.pl3          1 <1>                0.0000
     13 C13         -2.2375  -1.5517   0.0240 C.ar           1 <1>                0.0000
     14 C14         -3.2028  -2.2706  -0.6721 C.ar           1 <1>                0.0000
     15 C15         -3.1019  -3.6444  -0.7821 C.ar           1 <1>                0.0000
     16 C16         -2.0422  -4.3120  -0.2016 C.ar           1 <1>                0.0000
     17 C17         -1.0683  -3.5996   0.4996 C.ar           1 <1>                0.0000
     18 C18         -1.1664  -2.2128   0.6056 C.ar           1 <1>                0.0000
     19 C19          0.0316  -4.2901   1.1030 C.1            1 <1>                0.0000
     20 C20          0.9333  -4.8562   1.5977 C.1            1 <1>                0.0000
     21 C21         -1.3120   2.0675   0.2955 C.ar           1 <1>                0.0000
     22 N22         -2.4618   2.6704   0.5858 N.ar           1 <1>                0.0000
     23 C23         -2.4933   3.9693   0.7896 C.ar           1 <1>                0.0000
     24 N24         -1.4150   4.7319   0.7202 N.ar           1 <1>                0.0000
     25 C25         -0.2279   4.2236   0.4381 C.ar           1 <1>                0.0000
     26 C26         -0.1367   2.8489   0.2114 C.ar           1 <1>                0.0000
     27 H27          4.4038   2.7649  -0.5810 H              1 <1>                0.0000
     28 H28          2.3359   3.9390  -0.0483 H              1 <1>                0.0000
     29 H29          2.2906  -0.9614  -0.7915 H              1 <1>                0.0000
     30 H30         -3.2129   0.2490   0.2606 H              1 <1>                0.0000
     31 H31         -4.0342  -1.7537  -1.1280 H              1 <1>                0.0000
     32 H32         -3.8548  -4.1976  -1.3238 H              1 <1>                0.0000
     33 H33         -1.9669  -5.3858  -0.2899 H              1 <1>                0.0000
     34 H34         -0.4157  -1.6563   1.1471 H              1 <1>                0.0000
     35 H35          1.7398  -5.3624   2.0401 H              1 <1>                0.0000
     36 H36         -3.4402   4.4331   1.0232 H              1 <1>                0.0000
     37 H37          0.6471   4.8543   0.3836 H              1 <1>                0.0000
@<TRIPOS>BOND
    1    1    2 ar    
    2    2    3 ar    
    3    2    4 1     
    4    4    9 ar    
    5    4    5 ar    
    6    5    6 ar    
    7    5   27 1     
    8    6    7 ar    
    9    6   28 1     
   10    7   26 ar    
   11    7    8 ar    
   12    8    9 ar    
   13    8   10 ar    
   14    9   29 1     
   15   10   11 ar    
   16   11   12 1     
   17   11   21 ar    
   18   12   13 1     
   19   12   30 1     
   20   13   18 ar    
   21   13   14 ar    
   22   14   15 ar    
   23   14   31 1     
   24   15   16 ar    
   25   15   32 1     
   26   16   17 ar    
   27   16   33 1     
   28   17   18 ar    
   29   17   19 1     
   30   18   34 1     
   31   19   20 3     
   32   20   35 1     
   33   21   26 ar    
   34   21   22 ar    
   35   22   23 ar    
   36   23   24 ar    
   37   23   36 1     
   38   24   25 ar    
   39   25   26 ar    
   40   25   37 1     
@<TRIPOS>SUBSTRUCTURE
      1 ****           1
@<TRIPOS>SET
DONOR_HYDROGENS      STATIC     ATOMS    <user>   **** ""
1 30
ATOM$RED        STATIC     ATOMS    COLORGROUP SYSTEM
1 30
