#       Name:                E3P
#       Creating user name   gbret
#       Creation time:       Fri Sep  9 07:08:26 2016


#       File generated by GOLD software.
#

@<TRIPOS>MOLECULE
E3P
    57    59     1
SMALL
NO_CHARGES


@<TRIPOS>ATOM
      1 N1          -0.0084   8.6069  -1.3538 N.am           1 <1>                0.0000
      2 C2           0.0099   7.2592  -1.3612 C.2            1 <1>                0.0000
      3 O3           1.0683   6.6672  -1.3745 O.2            1 <1>                0.0000
      4 C4          -1.2848   6.4880  -1.3530 C.3            1 <1>                0.0000
      5 C5          -2.1040   6.8534  -2.5925 C.3            1 <1>                0.0000
      6 C6          -3.4696   6.1671  -2.5219 C.3            1 <1>                0.0000
      7 C7          -4.2764   6.5270  -3.7428 C.2            1 <1>                0.0000
      8 O8          -3.8030   7.2641  -4.5908 O.co2          1 <1>                0.0000
      9 O9          -5.4025   6.0810  -3.8825 O.co2          1 <1>                0.0000
     10 N10         -0.9976   5.0515  -1.3634 N.am           1 <1>                0.0000
     11 C11         -0.7547   4.4044  -0.2064 C.2            1 <1>                0.0000
     12 O12         -0.7738   5.0114   0.8434 O.2            1 <1>                0.0000
     13 C13         -0.4592   2.9267  -0.2171 C.3            1 <1>                0.0000
     14 C14         -0.2223   2.4436   1.2151 C.3            1 <1>                0.0000
     15 C15          0.0732   0.9658   1.2043 C.ar           1 <1>                0.0000
     16 C16         -0.9630   0.0553   1.3082 C.ar           1 <1>                0.0000
     17 C17         -0.6983  -1.2992   1.2994 C.ar           1 <1>                0.0000
     18 C18          0.6159  -1.7490   1.1850 C.ar           1 <1>                0.0000
     19 C19          1.6559  -0.8269   1.0802 C.ar           1 <1>                0.0000
     20 C20          1.3789   0.5251   1.0850 C.ar           1 <1>                0.0000
     21 C21          0.9068  -3.2033   1.1754 C.ar           1 <1>                0.0000
     22 C22         -0.1362  -4.1235   1.2752 C.ar           1 <1>                0.0000
     23 C23          0.1339  -5.4743   1.2662 C.ar           1 <1>                0.0000
     24 C24          1.4503  -5.9214   1.1570 C.ar           1 <1>                0.0000
     25 C25          2.4931  -5.0011   1.0563 C.ar           1 <1>                0.0000
     26 C26          2.2226  -3.6504   1.0609 C.ar           1 <1>                0.0000
     27 C27          1.7412  -7.3757   1.1484 C.ar           1 <1>                0.0000
     28 C28          0.7004  -8.2978   1.2435 C.ar           1 <1>                0.0000
     29 C29          0.9769  -9.6499   1.2345 C.ar           1 <1>                0.0000
     30 C30          2.2842 -10.0904   1.1318 C.ar           1 <1>                0.0000
     31 C31          3.3212  -9.1798   1.0375 C.ar           1 <1>                0.0000
     32 C32          3.0559  -7.8254   1.0393 C.ar           1 <1>                0.0000
     33 H33          0.8250   9.1032  -1.3631 H              1 <1>                0.0000
     34 H34         -0.8548   9.0803  -1.3432 H              1 <1>                0.0000
     35 H35         -1.8514   6.7388  -0.4562 H              1 <1>                0.0000
     36 H36         -2.2419   7.9340  -2.6313 H              1 <1>                0.0000
     37 H37         -1.5767   6.5221  -3.4871 H              1 <1>                0.0000
     38 H38         -3.3316   5.0866  -2.4831 H              1 <1>                0.0000
     39 H39         -3.9969   6.4984  -1.6273 H              1 <1>                0.0000
     40 H40         -0.9823   4.5661  -2.2031 H              1 <1>                0.0000
     41 H41         -1.3054   2.3901  -0.6463 H              1 <1>                0.0000
     42 H42          0.4318   2.7387  -0.8161 H              1 <1>                0.0000
     43 H43          0.6239   2.9801   1.6442 H              1 <1>                0.0000
     44 H44         -1.1133   2.6316   1.8141 H              1 <1>                0.0000
     45 H45         -1.9810   0.4050   1.3967 H              1 <1>                0.0000
     46 H46         -1.5080  -2.0092   1.3812 H              1 <1>                0.0000
     47 H47          2.6761  -1.1699   0.9914 H              1 <1>                0.0000
     48 H48          2.1839   1.2405   1.0038 H              1 <1>                0.0000
     49 H49         -1.1557  -3.7773   1.3598 H              1 <1>                0.0000
     50 H50         -0.6737  -6.1870   1.3442 H              1 <1>                0.0000
     51 H51          3.5126  -5.3474   0.9721 H              1 <1>                0.0000
     52 H52          3.0303  -2.9377   0.9830 H              1 <1>                0.0000
     53 H53         -0.3206  -7.9550   1.3244 H              1 <1>                0.0000
     54 H54          0.1713 -10.3653   1.3081 H              1 <1>                0.0000
     55 H55          2.4960 -11.1495   1.1255 H              1 <1>                0.0000
     56 H56          4.3399  -9.5294   0.9579 H              1 <1>                0.0000
     57 H57          3.8663  -7.1153   0.9657 H              1 <1>                0.0000
@<TRIPOS>BOND
    1    1    2 am    
    2    1   33 1     
    3    1   34 1     
    4    2    3 2     
    5    2    4 1     
    6    4    5 1     
    7    4   10 1     
    8    4   35 1     
    9    5    6 1     
   10    5   36 1     
   11    5   37 1     
   12    6    7 1     
   13    6   38 1     
   14    6   39 1     
   15    7    8 ar    
   16    7    9 ar    
   17   10   11 am    
   18   10   40 1     
   19   11   12 2     
   20   11   13 1     
   21   13   14 1     
   22   13   41 1     
   23   13   42 1     
   24   14   15 1     
   25   14   43 1     
   26   14   44 1     
   27   15   20 ar    
   28   15   16 ar    
   29   16   17 ar    
   30   16   45 1     
   31   17   18 ar    
   32   17   46 1     
   33   18   19 ar    
   34   18   21 1     
   35   19   20 ar    
   36   19   47 1     
   37   20   48 1     
   38   21   26 ar    
   39   21   22 ar    
   40   22   23 ar    
   41   22   49 1     
   42   23   24 ar    
   43   23   50 1     
   44   24   25 ar    
   45   24   27 1     
   46   25   26 ar    
   47   25   51 1     
   48   26   52 1     
   49   27   32 ar    
   50   27   28 ar    
   51   28   29 ar    
   52   28   53 1     
   53   29   30 ar    
   54   29   54 1     
   55   30   31 ar    
   56   30   55 1     
   57   31   32 ar    
   58   31   56 1     
   59   32   57 1     
@<TRIPOS>SUBSTRUCTURE
      1 ****           1
@<TRIPOS>SET
DONOR_HYDROGENS      STATIC     ATOMS    <user>   **** ""
3 33 34 40
ATOM$RED        STATIC     ATOMS    COLORGROUP SYSTEM
3 33 34 40
