#       Name:                EAT
#       Creating user name   gbret
#       Creation time:       Fri Sep  9 07:12:40 2016


#       File generated by GOLD software.
#

@<TRIPOS>MOLECULE
EAT
    33    35     1
SMALL
NO_CHARGES


@<TRIPOS>ATOM
      1 C1          -0.5879   3.8973   1.1448 C.3            1 <1>                0.0000
      2 C2          -0.5671   2.3674   1.1364 C.3            1 <1>                0.0000
      3 N3           0.1870   1.8693  -0.0336 N.4            1 <1>                0.0000
      4 H4          -0.4545   1.6337  -0.7759 H              1 <1>                0.0000
      5 H5           0.8290   2.5799  -0.3514 H              1 <1>                0.0000
      6 C6           0.9410   0.6684   0.3704 C.3            1 <1>                0.0000
      7 C7           0.6547   0.4312   1.8681 C.3            1 <1>                0.0000
      8 O8           1.8379   0.0064   2.5476 O.3            1 <1>                0.0000
      9 C9           0.2097   1.8319   2.3650 C.3            1 <1>                0.0000
     10 O10          1.3409   2.6556   2.6543 O.3            1 <1>                0.0000
     11 C11          0.4813  -0.5202  -0.4340 C.2            1 <1>                0.0000
     12 N12          0.8598  -1.7485  -0.2318 N.2            1 <1>                0.0000
     13 C13          0.2567  -2.5662  -1.1325 C.ar           1 <1>                0.0000
     14 C14          0.3020  -3.9433  -1.3654 C.ar           1 <1>                0.0000
     15 C15         -0.4386  -4.4874  -2.3761 C.ar           1 <1>                0.0000
     16 C16         -1.2386  -3.6858  -3.1782 C.ar           1 <1>                0.0000
     17 C17         -1.2989  -2.3249  -2.9668 C.ar           1 <1>                0.0000
     18 C18         -0.5535  -1.7542  -1.9440 C.ar           1 <1>                0.0000
     19 N19         -0.3945  -0.4661  -1.4736 N.pl3          1 <1>                0.0000
     20 H20         -0.8257   0.3303  -1.8212 H              1 <1>                0.0000
     21 H21          0.4347   4.2746   1.1371 H              1 <1>                0.0000
     22 H22         -1.1151   4.2583   0.2618 H              1 <1>                0.0000
     23 H23         -1.0981   4.2488   2.0416 H              1 <1>                0.0000
     24 H24         -1.5840   1.9749   1.1297 H              1 <1>                0.0000
     25 H25          2.0079   0.8317   0.2181 H              1 <1>                0.0000
     26 H26         -0.1449  -0.2983   1.9968 H              1 <1>                0.0000
     27 H27          1.7118  -0.1564   3.4924 H              1 <1>                0.0000
     28 H28         -0.4432   1.7487   3.2338 H              1 <1>                0.0000
     29 H29          1.9118   2.3085   3.3534 H              1 <1>                0.0000
     30 H30          0.9217  -4.5763  -0.7477 H              1 <1>                0.0000
     31 H31         -0.4010  -5.5521  -2.5530 H              1 <1>                0.0000
     32 H32         -1.8177  -4.1311  -3.9737 H              1 <1>                0.0000
     33 H33         -1.9233  -1.7056  -3.5937 H              1 <1>                0.0000
@<TRIPOS>BOND
    1    1    2 1     
    2    1   21 1     
    3    1   22 1     
    4    1   23 1     
    5    2    9 1     
    6    2    3 1     
    7    2   24 1     
    8    3    4 1     
    9    3    5 1     
   10    3    6 1     
   11    6    7 1     
   12    6   11 1     
   13    6   25 1     
   14    7    8 1     
   15    7    9 1     
   16    7   26 1     
   17    8   27 1     
   18    9   10 1     
   19    9   28 1     
   20   10   29 1     
   21   11   19 1     
   22   11   12 2     
   23   12   13 1     
   24   13   18 ar    
   25   13   14 ar    
   26   14   15 ar    
   27   14   30 1     
   28   15   16 ar    
   29   15   31 1     
   30   16   17 ar    
   31   16   32 1     
   32   17   18 ar    
   33   17   33 1     
   34   18   19 1     
   35   19   20 1     
@<TRIPOS>SUBSTRUCTURE
      1 ****           1
@<TRIPOS>SET
DONOR_HYDROGENS      STATIC     ATOMS    <user>   **** ""
5 4 5 27 29 20
ATOM$RED        STATIC     ATOMS    COLORGROUP SYSTEM
5 4 5 27 29 20
