@<TRIPOS>MOLECULE
EL
  34   37    0    0    0
SMALL
NO_CHARGES


@<TRIPOS>ATOM
   1 C1            -0.0184     1.5028     0.0103 C.3     
   2 C2             0.0021    -0.0041     0.0020 C.ar    
   3 C3             0.0058    -0.6907    -1.1970 C.ar    
   4 N4            -0.0065    -0.2517    -2.5105 N.pl3   
   5 H5            -0.0205     0.6791    -2.7834 H       
   6 C6             0.0043    -1.3305    -3.3791 C.ar    
   7 C7            -0.0007    -1.4115    -4.7682 C.ar    
   8 C8             0.0132    -2.6429    -5.3881 C.ar    
   9 C9             0.0328    -3.8091    -4.6393 C.ar    
  10 C10            0.0386    -3.7488    -3.2618 C.ar    
  11 C11            0.0242    -2.5113    -2.6239 C.ar    
  12 C12            0.0254    -2.1036    -1.2046 C.ar    
  13 C13            0.0411    -2.8191    -0.0219 C.ar    
  14 C14            0.0623    -4.3257    -0.0464 C.3     
  15 C15            0.0375    -2.1337     1.1986 C.ar    
  16 C16            0.0530    -2.8133     2.4291 C.ar    
  17 N17            0.0490    -2.1343     3.5517 N.pl3   
  18 H18            0.0600    -2.6224     4.3899 H       
  19 C19            0.0311    -0.8079     3.5889 C.ar    
  20 C20            0.0147    -0.0563     2.4550 C.ar    
  21 C21            0.0231    -0.7118     1.2074 C.ar    
  22 H22            1.0042     1.8801     0.0026 H       
  23 H23           -0.5455     1.8639    -0.8728 H       
  24 H24           -0.5286     1.8543     0.9071 H       
  25 H25           -0.0160    -0.5091    -5.3612 H       
  26 H26            0.0085    -2.6994    -6.4666 H       
  27 H27            0.0433    -4.7679    -5.1362 H       
  28 H28            0.0535    -4.6584    -2.6797 H       
  29 H29            1.0950    -4.6744    -0.0571 H       
  30 H30           -0.4420    -4.7106     0.8400 H       
  31 H31           -0.4507    -4.6819    -0.9397 H       
  32 H32            0.0678    -3.8930     2.4503 H       
  33 H33            0.0292    -0.3104     4.5475 H       
  34 H34           -0.0002     1.0222     2.5098 H       
@<TRIPOS>BOND
   1    1    2 1
   2    1   22 1
   3    1   23 1
   4    1   24 1
   5    2   21 ar
   6    2    3 ar
   7    3   12 ar
   8    3    4 1
   9    4    5 1
  10    4    6 1
  11    6   11 ar
  12    6    7 ar
  13    7    8 ar
  14    7   25 1
  15    8    9 ar
  16    8   26 1
  17    9   10 ar
  18    9   27 1
  19   10   11 ar
  20   10   28 1
  21   11   12 1
  22   12   13 ar
  23   13   14 1
  24   13   15 ar
  25   14   29 1
  26   14   30 1
  27   14   31 1
  28   15   21 ar
  29   15   16 ar
  30   16   17 ar
  31   16   32 1
  32   17   18 1
  33   17   19 ar
  34   19   20 ar
  35   19   33 1
  36   20   21 ar
  37   20   34 1





