#       Name:                ESX
#       Creating user name   gbret
#       Creation time:       Fri Sep  9 07:31:59 2016


#       File generated by GOLD software.
#

@<TRIPOS>MOLECULE
ESX
    21    22     1
SMALL
NO_CHARGES


@<TRIPOS>ATOM
      1 N1           2.1514   2.9825   0.1714 N.pl3          1 <1>                0.0000
      2 C2           2.1695   1.6481   0.1640 C.2            1 <1>                0.0000
      3 N3           3.3340   0.9967   0.1494 N.pl3          1 <1>                0.0000
      4 H4           4.1674   1.4931   0.1441 H              1 <1>                0.0000
      5 H5           3.3472   0.0268   0.1440 H              1 <1>                0.0000
      6 C6           0.9049   0.8949   0.1720 C.2            1 <1>                0.0000
      7 C7           0.7354  -0.3107  -0.3777 C.2            1 <1>                0.0000
      8 C8          -0.5537  -0.8560  -0.2585 C.ar           1 <1>                0.0000
      9 C9          -1.0395  -2.0985  -0.7312 C.ar           1 <1>                0.0000
     10 C10         -2.3329  -2.4592  -0.5192 C.ar           1 <1>                0.0000
     11 C11         -3.2014  -1.6166   0.1638 C.ar           1 <1>                0.0000
     12 C12         -2.7595  -0.4038   0.6349 C.ar           1 <1>                0.0000
     13 C13         -1.4328  -0.0108   0.4295 C.ar           1 <1>                0.0000
     14 S14         -0.5849   1.4542   0.9116 S.3            1 <1>                0.0000
     15 H15          2.9847   3.4788   0.1661 H              1 <1>                0.0000
     16 H16          1.3048   3.4560   0.1779 H              1 <1>                0.0000
     17 H17          1.5366  -0.8317  -0.8809 H              1 <1>                0.0000
     18 H18         -0.3778  -2.7649  -1.2645 H              1 <1>                0.0000
     19 H19         -2.6893  -3.4105  -0.8858 H              1 <1>                0.0000
     20 H20         -4.2267  -1.9155   0.3245 H              1 <1>                0.0000
     21 H21         -3.4383   0.2478   1.1649 H              1 <1>                0.0000
@<TRIPOS>BOND
    1    1    2 2     
    2    1   15 1     
    3    1   16 1     
    4    2    3 1     
    5    2    6 1     
    6    3    4 1     
    7    3    5 1     
    8    6   14 1     
    9    6    7 2     
   10    7    8 1     
   11    7   17 1     
   12    8   13 ar    
   13    8    9 ar    
   14    9   10 ar    
   15    9   18 1     
   16   10   11 ar    
   17   10   19 1     
   18   11   12 ar    
   19   11   20 1     
   20   12   13 ar    
   21   12   21 1     
   22   13   14 1     
@<TRIPOS>SUBSTRUCTURE
      1 ****           1
@<TRIPOS>SET
DONOR_HYDROGENS      STATIC     ATOMS    <user>   **** ""
4 15 16 4 5
ATOM$RED        STATIC     ATOMS    COLORGROUP SYSTEM
4 15 16 4 5
