#       Name:                F1A
#       Creating user name   gbret
#       Creation time:       Fri Sep  9 07:37:33 2016


#       File generated by GOLD software.
#

@<TRIPOS>MOLECULE
F1A
    26    26     1
SMALL
NO_CHARGES


@<TRIPOS>ATOM
      1 C1          -1.1538   3.4252   0.2501 C.3            1 <1>                0.0000
      2 C2          -0.6055   2.0248   0.1532 C.ar           1 <1>                0.0000
      3 C3          -0.2497   1.5055  -1.0775 C.ar           1 <1>                0.0000
      4 C4           0.2533   0.2210  -1.1664 C.ar           1 <1>                0.0000
      5 C5           0.6408  -0.3453  -2.5082 C.3            1 <1>                0.0000
      6 C6           0.4013  -0.5439  -0.0245 C.ar           1 <1>                0.0000
      7 C7           0.0459  -0.0244   1.2062 C.ar           1 <1>                0.0000
      8 C8           0.2068  -0.8585   2.4510 C.3            1 <1>                0.0000
      9 C9          -0.4530   1.2616   1.2956 C.ar           1 <1>                0.0000
     10 S10          1.0424  -2.1812  -0.1379 S.o2           1 <1>                0.0000
     11 N11         -0.2485  -3.2012  -0.3260 N.pl3          1 <1>                0.0000
     12 O12          1.7804  -2.2401  -1.3508 O.2            1 <1>                0.0000
     13 O13          1.6079  -2.4795   1.1312 O.2            1 <1>                0.0000
     14 H14         -0.3326   4.1280   0.3903 H              1 <1>                0.0000
     15 H15         -1.6891   3.6701  -0.6673 H              1 <1>                0.0000
     16 H16         -1.8364   3.4903   1.0975 H              1 <1>                0.0000
     17 H17         -0.3649   2.1033  -1.9696 H              1 <1>                0.0000
     18 H18          1.7124  -0.2171  -2.6609 H              1 <1>                0.0000
     19 H19          0.3937  -1.4064  -2.5397 H              1 <1>                0.0000
     20 H20          0.0965   0.1781  -3.2943 H              1 <1>                0.0000
     21 H21          1.2320  -0.7778   2.8124 H              1 <1>                0.0000
     22 H22         -0.4785  -0.5005   3.2193 H              1 <1>                0.0000
     23 H23         -0.0167  -1.9004   2.2217 H              1 <1>                0.0000
     24 H24         -0.7307   1.6675   2.2572 H              1 <1>                0.0000
     25 H25         -0.1447  -4.0286  -0.8216 H              1 <1>                0.0000
     26 H26         -1.1085  -2.9713   0.0593 H              1 <1>                0.0000
@<TRIPOS>BOND
    1    1    2 1     
    2    1   14 1     
    3    1   15 1     
    4    1   16 1     
    5    2    9 ar    
    6    2    3 ar    
    7    3    4 ar    
    8    3   17 1     
    9    4    5 1     
   10    4    6 ar    
   11    5   18 1     
   12    5   19 1     
   13    5   20 1     
   14    6    7 ar    
   15    6   10 1     
   16    7    8 1     
   17    7    9 ar    
   18    8   21 1     
   19    8   22 1     
   20    8   23 1     
   21    9   24 1     
   22   10   11 1     
   23   10   12 2     
   24   10   13 2     
   25   11   25 1     
   26   11   26 1     
@<TRIPOS>SUBSTRUCTURE
      1 ****           1
@<TRIPOS>SET
DONOR_HYDROGENS      STATIC     ATOMS    <user>   **** ""
2 25 26
ATOM$RED        STATIC     ATOMS    COLORGROUP SYSTEM
2 25 26
