#       Name:                F37
#       Creating user name   gbret
#       Creation time:       Fri Sep  9 07:40:07 2016


#       File generated by GOLD software.
#

@<TRIPOS>MOLECULE
F37
    39    42     1
SMALL
NO_CHARGES


@<TRIPOS>ATOM
      1 C1           3.6194   3.0728  -0.1268 C.3            1 <1>                0.0000
      2 C2           3.6402   1.5429  -0.1352 C.3            1 <1>                0.0000
      3 N3           4.4297   1.0416  -1.2733 N.am           1 <1>                0.0000
      4 C4           5.4533   0.3409  -0.7526 C.2            1 <1>                0.0000
      5 O5           6.3030  -0.2128  -1.4224 O.2            1 <1>                0.0000
      6 N6           5.4313   0.3216   0.5850 N.am           1 <1>                0.0000
      7 C7           4.3834   1.0130   1.0750 C.2            1 <1>                0.0000
      8 O8           4.0955   1.1776   2.2411 O.2            1 <1>                0.0000
      9 C9           2.2368   0.9955  -0.1772 C.ar           1 <1>                0.0000
     10 C10          1.5655   0.7298   1.0032 C.ar           1 <1>                0.0000
     11 C11          0.2808   0.2282   0.9719 C.ar           1 <1>                0.0000
     12 C12         -0.3420  -0.0110  -0.2543 C.ar           1 <1>                0.0000
     13 C13          0.3407   0.2596  -1.4414 C.ar           1 <1>                0.0000
     14 C14          1.6232   0.7660  -1.3958 C.ar           1 <1>                0.0000
     15 C15         -1.7181  -0.5489  -0.2954 C.2            1 <1>                0.0000
     16 N16         -2.3289  -0.7860   0.8368 N.2            1 <1>                0.0000
     17 C17         -3.5839  -1.2764   0.8749 C.ar           1 <1>                0.0000
     18 C18         -4.2339  -1.5282   2.0867 C.ar           1 <1>                0.0000
     19 C19         -5.5066  -2.0252   2.0842 C.ar           1 <1>                0.0000
     20 C20         -6.1695  -2.2865   0.8921 C.ar           1 <1>                0.0000
     21 C21         -5.5552  -2.0491  -0.3184 C.ar           1 <1>                0.0000
     22 C22         -4.2575  -1.5415  -0.3392 C.ar           1 <1>                0.0000
     23 C23         -3.5513  -1.2677  -1.5994 C.2            1 <1>                0.0000
     24 O24         -4.0778  -1.4763  -2.6769 O.2            1 <1>                0.0000
     25 N25         -2.2953  -0.7703  -1.5158 N.am           1 <1>                0.0000
     26 H26         -1.7985  -0.5770  -2.3261 H              1 <1>                0.0000
     27 H27          4.6420   3.4501  -0.1345 H              1 <1>                0.0000
     28 H28          3.0922   3.4338  -1.0098 H              1 <1>                0.0000
     29 H29          3.1092   3.4243   0.7700 H              1 <1>                0.0000
     30 H30          4.2469   1.1877  -2.2146 H              1 <1>                0.0000
     31 H31          6.0882  -0.1342   1.1343 H              1 <1>                0.0000
     32 H32          2.0485   0.9153   1.9512 H              1 <1>                0.0000
     33 H33         -0.2418   0.0206   1.8939 H              1 <1>                0.0000
     34 H34         -0.1355   0.0768  -2.3933 H              1 <1>                0.0000
     35 H35          2.1525   0.9758  -2.3136 H              1 <1>                0.0000
     36 H36         -3.7314  -1.3308   3.0220 H              1 <1>                0.0000
     37 H37         -6.0044  -2.2180   3.0231 H              1 <1>                0.0000
     38 H38         -7.1752  -2.6796   0.9139 H              1 <1>                0.0000
     39 H39         -6.0747  -2.2547  -1.2426 H              1 <1>                0.0000
@<TRIPOS>BOND
    1    1    2 1     
    2    1   27 1     
    3    1   28 1     
    4    1   29 1     
    5    2    7 1     
    6    2    3 1     
    7    2    9 1     
    8    3    4 am    
    9    3   30 1     
   10    4    5 2     
   11    4    6 am    
   12    6    7 am    
   13    6   31 1     
   14    7    8 2     
   15    9   14 ar    
   16    9   10 ar    
   17   10   11 ar    
   18   10   32 1     
   19   11   12 ar    
   20   11   33 1     
   21   12   13 ar    
   22   12   15 1     
   23   13   14 ar    
   24   13   34 1     
   25   14   35 1     
   26   15   25 1     
   27   15   16 2     
   28   16   17 1     
   29   17   22 ar    
   30   17   18 ar    
   31   18   19 ar    
   32   18   36 1     
   33   19   20 ar    
   34   19   37 1     
   35   20   21 ar    
   36   20   38 1     
   37   21   22 ar    
   38   21   39 1     
   39   22   23 1     
   40   23   24 2     
   41   23   25 am    
   42   25   26 1     
@<TRIPOS>SUBSTRUCTURE
      1 ****           1
@<TRIPOS>SET
DONOR_HYDROGENS      STATIC     ATOMS    <user>   **** ""
3 30 31 26
ATOM$RED        STATIC     ATOMS    COLORGROUP SYSTEM
3 30 31 26
