#       Name:                F5N
#       Creating user name   gbret
#       Creation time:       Fri Sep  9 07:42:20 2016


#       File generated by GOLD software.
#

@<TRIPOS>MOLECULE
F5N
    33    35     1
SMALL
NO_CHARGES


@<TRIPOS>ATOM
      1 O1          -0.8120  -0.2136   0.0898 O.2            1 <1>                0.0000
      2 C2          -0.8285   0.9991   0.1047 C.2            1 <1>                0.0000
      3 C3           0.4662   1.7704   0.1049 C.3            1 <1>                0.0000
      4 C4           1.6248   0.8070   0.0850 C.2            1 <1>                0.0000
      5 C5           2.1736   0.2118   1.1666 C.2            1 <1>                0.0000
      6 N6           3.1933  -0.5822   0.7172 N.pl3          1 <1>                0.0000
      7 C7           4.0774  -1.4008   1.3584 C.ar           1 <1>                0.0000
      8 C8           5.0071  -2.0879   0.6621 C.ar           1 <1>                0.0000
      9 C9           5.0772  -1.9684  -0.7358 C.ar           1 <1>                0.0000
     10 C10          4.2021  -1.1560  -1.3874 C.ar           1 <1>                0.0000
     11 C11          3.2367  -0.4455  -0.6461 C.ar           1 <1>                0.0000
     12 N12          2.2764   0.3948  -1.0050 N.pl3          1 <1>                0.0000
     13 H13          2.0800   0.6686  -1.9146 H              1 <1>                0.0000
     14 N14         -2.0048   1.6569   0.1153 N.am           1 <1>                0.0000
     15 C15         -3.2052   0.9455   0.0116 C.ar           1 <1>                0.0000
     16 C16         -4.2787   1.4894  -0.6816 C.ar           1 <1>                0.0000
     17 C17         -5.4622   0.7846  -0.7822 C.ar           1 <1>                0.0000
     18 C18         -5.5791  -0.4610  -0.1932 C.ar           1 <1>                0.0000
     19 C19         -4.5122  -1.0052   0.4980 C.ar           1 <1>                0.0000
     20 C20         -3.3238  -0.3084   0.5966 C.ar           1 <1>                0.0000
     21 H21          0.5091   2.4085  -0.7778 H              1 <1>                0.0000
     22 H22          0.5216   2.3869   1.0020 H              1 <1>                0.0000
     23 H23          1.8653   0.3392   2.1938 H              1 <1>                0.0000
     24 H24          4.0327  -1.4994   2.4329 H              1 <1>                0.0000
     25 H25          5.7006  -2.7322   1.1819 H              1 <1>                0.0000
     26 H26          5.8226  -2.5188  -1.2906 H              1 <1>                0.0000
     27 H27          4.2469  -1.0562  -2.4618 H              1 <1>                0.0000
     28 H28         -2.0192   2.6235   0.1950 H              1 <1>                0.0000
     29 H29         -4.1882   2.4625  -1.1411 H              1 <1>                0.0000
     30 H30         -6.2974   1.2071  -1.3211 H              1 <1>                0.0000
     31 H31         -6.5058  -1.0100  -0.2730 H              1 <1>                0.0000
     32 H32         -4.6069  -1.9779   0.9575 H              1 <1>                0.0000
     33 H33         -2.4909  -0.7339   1.1366 H              1 <1>                0.0000
@<TRIPOS>BOND
    1    1    2 2     
    2    2    3 1     
    3    2   14 am    
    4    3    4 1     
    5    3   21 1     
    6    3   22 1     
    7    4   12 1     
    8    4    5 2     
    9    5    6 1     
   10    5   23 1     
   11    6   11 ar    
   12    6    7 ar    
   13    7    8 ar    
   14    7   24 1     
   15    8    9 ar    
   16    8   25 1     
   17    9   10 ar    
   18    9   26 1     
   19   10   11 ar    
   20   10   27 1     
   21   11   12 1     
   22   12   13 1     
   23   14   15 1     
   24   14   28 1     
   25   15   20 ar    
   26   15   16 ar    
   27   16   17 ar    
   28   16   29 1     
   29   17   18 ar    
   30   17   30 1     
   31   18   19 ar    
   32   18   31 1     
   33   19   20 ar    
   34   19   32 1     
   35   20   33 1     
@<TRIPOS>SUBSTRUCTURE
      1 ****           1
@<TRIPOS>SET
DONOR_HYDROGENS      STATIC     ATOMS    <user>   **** ""
2 13 28
ATOM$RED        STATIC     ATOMS    COLORGROUP SYSTEM
2 13 28
