@<TRIPOS>MOLECULE
FB
  41   42    0    0    0
SMALL
NO_CHARGES


@<TRIPOS>ATOM
   1 C1             0.0809     1.4133     0.2254 C.3     
   2 C2             0.0414    -0.1086     0.0736 C.3     
   3 O3             0.8262    -0.7107     1.1049 O.3     
   4 C4            -1.4051    -0.5948     0.1839 C.3     
   5 O5            -1.9718    -0.1296     1.4105 O.3     
   6 C6             0.6081    -0.4997    -1.2927 C.3     
   7 O7            -0.1369     0.1537    -2.3222 O.3     
   8 C8             2.0755    -0.0745    -1.3769 C.3     
   9 N9             2.8521    -0.8619    -0.4052 N.am    
  10 C10            4.1796    -0.9936    -0.6029 C.2     
  11 O11            4.8700    -1.4762     0.2697 O.2     
  12 C12            4.8081    -0.5545    -1.8790 C.3     
  13 O13            5.9025    -1.4295    -2.1592 O.3     
  14 N14            3.8622    -0.6319    -3.0070 N.am    
  15 C15            2.5753    -0.3408    -2.7622 C.2     
  16 O16            1.7842    -0.3199    -3.6813 O.2     
  17 C17            5.3398     0.8620    -1.8345 C.2     
  18 C18            4.3183     1.9981    -1.7988 C.3     
  19 C19            3.3780     1.8070    -0.6104 C.3     
  20 O20            2.1771     1.2714    -0.9987 O.3     
  21 C21            6.6512     1.1094    -1.8264 C.2     
  22 C22            7.1358     2.4876    -1.8970 C.2     
  23 O23            8.3261     2.7087    -1.9766 O.2     
  24 H24            1.0927     1.7267     0.4823 H       
  25 H25           -0.2167     1.8800    -0.7136 H       
  26 H26           -0.6054     1.7175     1.0158 H       
  27 H27            0.8465    -1.6769     1.0704 H       
  28 H28           -1.9839    -0.2063    -0.6541 H       
  29 H29           -1.4246    -1.6844     0.1648 H       
  30 H30           -2.8897    -0.4010     1.5475 H       
  31 H31            0.5349    -1.5797    -1.4208 H       
  32 H32           -0.1162     1.1191    -2.2704 H       
  33 H33            2.4197    -1.2754     0.3583 H       
  34 H34            5.6491    -2.3577    -2.2562 H       
  35 H35            4.1641    -0.8733    -3.8966 H       
  36 H36            4.8386     2.9508    -1.7001 H       
  37 H37            3.7401     1.9953    -2.7228 H       
  38 H38            3.8436     1.1386     0.1139 H       
  39 H39            3.1923     2.7720    -0.1388 H       
  40 H40            7.3546     0.2920    -1.7677 H       
  41 H41            6.4341     3.3084    -1.8783 H       
@<TRIPOS>BOND
   1    1    2 1
   2    1   24 1
   3    1   25 1
   4    1   26 1
   5    2    3 1
   6    2    4 1
   7    2    6 1
   8    3   27 1
   9    4    5 1
  10    4   28 1
  11    4   29 1
  12    5   30 1
  13    6    7 1
  14    6    8 1
  15    6   31 1
  16    7   32 1
  17    8   15 1
  18    8   20 1
  19    8    9 1
  20    9   10 am
  21    9   33 1
  22   10   11 2
  23   10   12 1
  24   12   13 1
  25   12   14 1
  26   12   17 1
  27   13   34 1
  28   14   15 am
  29   14   35 1
  30   15   16 2
  31   17   18 1
  32   17   21 2
  33   18   19 1
  34   18   36 1
  35   18   37 1
  36   19   20 1
  37   19   38 1
  38   19   39 1
  39   21   22 1
  40   21   40 1
  41   22   23 2
  42   22   41 1





