#       Name:                FB4
#       Creating user name   gbret
#       Creation time:       Fri Sep  9 07:47:42 2016


#       File generated by GOLD software.
#

@<TRIPOS>MOLECULE
FB4
    26    27     1
SMALL
NO_CHARGES


@<TRIPOS>ATOM
      1 N1          -2.2103   2.5957  -0.2805 N.pl3          1 <1>                0.0000
      2 C2          -2.1990   1.2016  -0.1587 C.ar           1 <1>                0.0000
      3 C3          -3.3842   0.4863  -0.2468 C.ar           1 <1>                0.0000
      4 C4          -3.3703  -0.8916  -0.1266 C.ar           1 <1>                0.0000
      5 Cl5         -4.8542  -1.7858  -0.2371 Cl             1 <1>                0.0000
      6 C6          -2.1760  -1.5589   0.0812 C.ar           1 <1>                0.0000
      7 C7          -0.9912  -0.8517   0.1700 C.ar           1 <1>                0.0000
      8 C8          -0.9964   0.5281   0.0458 C.ar           1 <1>                0.0000
      9 O9           0.1685   1.2245   0.1325 O.3            1 <1>                0.0000
     10 C10          1.3275   0.5202   0.2318 C.ar           1 <1>                0.0000
     11 C11          1.8699   0.2478   1.4777 C.ar           1 <1>                0.0000
     12 C12          3.0480  -0.4682   1.5773 C.ar           1 <1>                0.0000
     13 C13          3.6887  -0.9141   0.4348 C.ar           1 <1>                0.0000
     14 Cl14         5.1681  -1.8129   0.5659 Cl             1 <1>                0.0000
     15 C15          3.1523  -0.6454  -0.8118 C.ar           1 <1>                0.0000
     16 C16          1.9683   0.0665  -0.9174 C.ar           1 <1>                0.0000
     17 O17          1.4396   0.3315  -2.1420 O.3            1 <1>                0.0000
     18 H18         -1.3803   3.0943  -0.2226 H              1 <1>                0.0000
     19 H19         -3.0476   3.0630  -0.4267 H              1 <1>                0.0000
     20 H20         -4.3175   1.0050  -0.4090 H              1 <1>                0.0000
     21 H21         -2.1694  -2.6348   0.1745 H              1 <1>                0.0000
     22 H22         -0.0608  -1.3755   0.3322 H              1 <1>                0.0000
     23 H23          1.3721   0.5953   2.3710 H              1 <1>                0.0000
     24 H24          3.4696  -0.6797   2.5489 H              1 <1>                0.0000
     25 H25          3.6541  -0.9941  -1.7022 H              1 <1>                0.0000
     26 H26          0.8296  -0.3470  -2.4622 H              1 <1>                0.0000
@<TRIPOS>BOND
    1    1    2 1     
    2    1   18 1     
    3    1   19 1     
    4    2    8 ar    
    5    2    3 ar    
    6    3    4 ar    
    7    3   20 1     
    8    4    5 1     
    9    4    6 ar    
   10    6    7 ar    
   11    6   21 1     
   12    7    8 ar    
   13    7   22 1     
   14    8    9 1     
   15    9   10 1     
   16   10   16 ar    
   17   10   11 ar    
   18   11   12 ar    
   19   11   23 1     
   20   12   13 ar    
   21   12   24 1     
   22   13   14 1     
   23   13   15 ar    
   24   15   16 ar    
   25   15   25 1     
   26   16   17 1     
   27   17   26 1     
@<TRIPOS>SUBSTRUCTURE
      1 ****           1
@<TRIPOS>SET
DONOR_HYDROGENS      STATIC     ATOMS    <user>   **** ""
3 18 19 26
ATOM$RED        STATIC     ATOMS    COLORGROUP SYSTEM
3 18 19 26
