#       Name:                FCW
#       Creating user name   gbret
#       Creation time:       Fri Sep  9 07:50:30 2016


#       File generated by GOLD software.
#

@<TRIPOS>MOLECULE
FCW
    33    35     1
SMALL
NO_CHARGES


@<TRIPOS>ATOM
      1 O1           0.5365  -6.2137  -0.0423 O.2            1 <1>                0.0000
      2 C2           0.5200  -5.0009  -0.0356 C.2            1 <1>                0.0000
      3 C3          -0.7098  -4.1183  -0.0125 C.3            1 <1>                0.0000
      4 C4          -0.1535  -2.7131  -0.0125 C.ar           1 <1>                0.0000
      5 C5          -0.7473  -1.4710   0.0031 C.ar           1 <1>                0.0000
      6 C6           0.0372  -0.3309  -0.0022 C.ar           1 <1>                0.0000
      7 C7           1.4154  -0.4443  -0.0230 C.ar           1 <1>                0.0000
      8 C8           2.0128  -1.6875  -0.0391 C.ar           1 <1>                0.0000
      9 C9           1.2295  -2.8402  -0.0334 C.ar           1 <1>                0.0000
     10 N10          1.5900  -4.1881  -0.0415 N.am           1 <1>                0.0000
     11 C11         -0.6086   1.0306   0.0142 C.3            1 <1>                0.0000
     12 C12         -0.1577   1.7940   1.2612 C.3            1 <1>                0.0000
     13 C13         -0.8134   3.1763   1.2778 C.3            1 <1>                0.0000
     14 C14         -0.3983   3.9528   0.0266 C.3            1 <1>                0.0000
     15 C15         -0.8492   3.1894  -1.2203 C.3            1 <1>                0.0000
     16 C16         -0.1935   1.8071  -1.2370 C.3            1 <1>                0.0000
     17 H17         -1.3185  -4.2881  -0.9006 H              1 <1>                0.0000
     18 H18         -1.2923  -4.2985   0.8910 H              1 <1>                0.0000
     19 H19         -1.8239  -1.3865   0.0189 H              1 <1>                0.0000
     20 H20          2.0274   0.4456  -0.0271 H              1 <1>                0.0000
     21 H21          3.0897  -1.7678  -0.0557 H              1 <1>                0.0000
     22 H22          2.5076  -4.5023  -0.0526 H              1 <1>                0.0000
     23 H23         -1.6927   0.9184   0.0292 H              1 <1>                0.0000
     24 H24         -0.4534   1.2408   2.1526 H              1 <1>                0.0000
     25 H25          0.9264   1.9062   1.2462 H              1 <1>                0.0000
     26 H26         -1.8975   3.0640   1.2928 H              1 <1>                0.0000
     27 H27         -0.4921   3.7201   2.1662 H              1 <1>                0.0000
     28 H28         -0.8654   4.9375   0.0385 H              1 <1>                0.0000
     29 H29          0.6858   4.0650   0.0116 H              1 <1>                0.0000
     30 H30         -1.9333   3.0771  -1.2054 H              1 <1>                0.0000
     31 H31         -0.5535   3.7426  -2.1118 H              1 <1>                0.0000
     32 H32          0.8906   1.9194  -1.2520 H              1 <1>                0.0000
     33 H33         -0.5148   1.2633  -2.1254 H              1 <1>                0.0000
@<TRIPOS>BOND
    1    1    2 2     
    2    2   10 am    
    3    2    3 1     
    4    3    4 1     
    5    3   17 1     
    6    3   18 1     
    7    4    9 ar    
    8    4    5 ar    
    9    5    6 ar    
   10    5   19 1     
   11    6    7 ar    
   12    6   11 1     
   13    7    8 ar    
   14    7   20 1     
   15    8    9 ar    
   16    8   21 1     
   17    9   10 1     
   18   10   22 1     
   19   11   16 1     
   20   11   12 1     
   21   11   23 1     
   22   12   13 1     
   23   12   24 1     
   24   12   25 1     
   25   13   14 1     
   26   13   26 1     
   27   13   27 1     
   28   14   15 1     
   29   14   28 1     
   30   14   29 1     
   31   15   16 1     
   32   15   30 1     
   33   15   31 1     
   34   16   32 1     
   35   16   33 1     
@<TRIPOS>SUBSTRUCTURE
      1 ****           1
@<TRIPOS>SET
DONOR_HYDROGENS      STATIC     ATOMS    <user>   **** ""
1 22
ATOM$RED        STATIC     ATOMS    COLORGROUP SYSTEM
1 22
