#       Name:                FDM
#       Creating user name   gbret
#       Creation time:       Fri Sep  9 07:51:36 2016


#       File generated by GOLD software.
#

@<TRIPOS>MOLECULE
FDM
    33    34     1
SMALL
NO_CHARGES


@<TRIPOS>ATOM
      1 C1           1.6582   4.7566  -0.5444 C.3            1 <1>                0.0000
      2 C2           1.6787   3.2497  -0.5527 C.2            1 <1>                0.0000
      3 C3           0.5240   2.5499  -0.5510 C.2            1 <1>                0.0000
      4 N4           0.5606   1.1820  -0.5586 N.am           1 <1>                0.0000
      5 C5          -0.6921   0.4226  -0.5568 C.3            1 <1>                0.0000
      6 C6          -0.8037  -0.4338  -1.8376 C.3            1 <1>                0.0000
      7 C7          -1.4719  -1.7417  -1.3577 C.3            1 <1>                0.0000
      8 F8          -0.6264  -2.8341  -1.5795 F              1 <1>                0.0000
      9 C9          -1.6850  -1.5208   0.1563 C.3            1 <1>                0.0000
     10 C10         -1.4472  -2.8231   0.9233 C.3            1 <1>                0.0000
     11 O11         -1.7616  -2.6273   2.3034 O.3            1 <1>                0.0000
     12 P12         -1.6270  -3.7916   3.4072 P.3            1 <1>                0.0000
     13 O13         -0.1208  -4.1947   3.5600 O.co2          1 <1>                0.0000
     14 O14         -2.1709  -3.2734   4.7820 O.co2          1 <1>                0.0000
     15 O15         -2.4582  -5.0398   2.9537 O.co2          1 <1>                0.0000
     16 O16         -0.6999  -0.5319   0.5271 O.3            1 <1>                0.0000
     17 C17          1.7364   0.5281  -0.5681 C.2            1 <1>                0.0000
     18 O18          1.7459  -0.6878  -0.5751 O.2            1 <1>                0.0000
     19 N19          2.9022   1.2007  -0.5704 N.am           1 <1>                0.0000
     20 H20          3.7410   0.7136  -0.5780 H              1 <1>                0.0000
     21 C21          2.9088   2.5491  -0.5682 C.2            1 <1>                0.0000
     22 O22          3.9631   3.1585  -0.5707 O.2            1 <1>                0.0000
     23 H23          2.6808   5.1339  -0.5521 H              1 <1>                0.0000
     24 H24          1.1311   5.1177  -1.4275 H              1 <1>                0.0000
     25 H25          1.1480   5.1081   0.3524 H              1 <1>                0.0000
     26 H26         -0.4240   3.0672  -0.5434 H              1 <1>                0.0000
     27 H27         -1.5440   1.0975  -0.4742 H              1 <1>                0.0000
     28 H28         -1.4292   0.0654  -2.5776 H              1 <1>                0.0000
     29 H29          0.1854  -0.6384  -2.2476 H              1 <1>                0.0000
     30 H30         -2.4266  -1.8903  -1.8622 H              1 <1>                0.0000
     31 H31         -2.6909  -1.1470   0.3473 H              1 <1>                0.0000
     32 H32         -2.0835  -3.6075   0.5134 H              1 <1>                0.0000
     33 H33         -0.4017  -3.1159   0.8268 H              1 <1>                0.0000
@<TRIPOS>BOND
    1    1    2 1     
    2    1   23 1     
    3    1   24 1     
    4    1   25 1     
    5    2   21 1     
    6    2    3 2     
    7    3    4 1     
    8    3   26 1     
    9    4    5 1     
   10    4   17 1     
   11    5   16 1     
   12    5    6 1     
   13    5   27 1     
   14    6    7 1     
   15    6   28 1     
   16    6   29 1     
   17    7    8 1     
   18    7    9 1     
   19    7   30 1     
   20    9   10 1     
   21    9   16 1     
   22    9   31 1     
   23   10   11 1     
   24   10   32 1     
   25   10   33 1     
   26   11   12 1     
   27   12   13 ar    
   28   12   14 ar    
   29   12   15 ar    
   30   17   18 2     
   31   17   19 1     
   32   19   20 1     
   33   19   21 1     
   34   21   22 2     
@<TRIPOS>SUBSTRUCTURE
      1 ****           1
@<TRIPOS>SET
DONOR_HYDROGENS      STATIC     ATOMS    <user>   **** ""
1 20
ATOM$RED        STATIC     ATOMS    COLORGROUP SYSTEM
1 20
