#       Name:                FOL
#       Creating user name   gbret
#       Creation time:       Fri Sep  9 08:05:13 2016


#       File generated by GOLD software.
#

@<TRIPOS>MOLECULE
FOL
    49    51     1
SMALL
NO_CHARGES


@<TRIPOS>ATOM
      1 N1          -1.2192   9.5954  -2.1004 N.pl3          1 <1>                0.0000
      2 C2          -1.2006   8.2291  -2.1079 C.2            1 <1>                0.0000
      3 N3          -2.3488   7.5855  -2.1057 N.2            1 <1>                0.0000
      4 C4          -2.4048   6.2466  -2.1127 C.2            1 <1>                0.0000
      5 O5          -3.4770   5.6662  -2.1110 O.2            1 <1>                0.0000
      6 C6          -1.1348   5.4908  -2.1231 C.ar           1 <1>                0.0000
      7 N7          -1.1097   4.1654  -2.1309 N.ar           1 <1>                0.0000
      8 C8           0.0498   3.5371  -2.1405 C.ar           1 <1>                0.0000
      9 C9           0.0849   2.0305  -2.1499 C.3            1 <1>                0.0000
     10 N10         -0.0173   1.5311  -0.7764 N.pl3          1 <1>                0.0000
     11 C11         -0.0064   0.1624  -0.5317 C.ar           1 <1>                0.0000
     12 C12          0.1074  -0.7320  -1.5925 C.ar           1 <1>                0.0000
     13 C13          0.1185  -2.0872  -1.3536 C.ar           1 <1>                0.0000
     14 C14          0.0153  -2.5654  -0.0441 C.ar           1 <1>                0.0000
     15 C15         -0.0989  -1.6648   1.0189 C.ar           1 <1>                0.0000
     16 C16         -0.1037  -0.3106   0.7740 C.ar           1 <1>                0.0000
     17 C17          0.0264  -4.0176   0.2154 C.2            1 <1>                0.0000
     18 O18          0.1254  -4.7999  -0.7102 O.2            1 <1>                0.0000
     19 N19         -0.0732  -4.4772   1.4785 N.am           1 <1>                0.0000
     20 C20         -0.0622  -5.9193   1.7363 C.3            1 <1>                0.0000
     21 C21          0.4316  -6.1790   3.1609 C.3            1 <1>                0.0000
     22 C22          1.8905  -5.7346   3.2840 C.3            1 <1>                0.0000
     23 C23          2.3769  -5.9904   4.6872 C.2            1 <1>                0.0000
     24 O24          1.6262  -6.4825   5.5124 O.co2          1 <1>                0.0000
     25 O25          3.5210  -5.7053   4.9973 O.co2          1 <1>                0.0000
     26 C26         -1.4569  -6.4681   1.5802 C.2            1 <1>                0.0000
     27 O27         -1.6217  -7.6179   1.2094 O.co2          1 <1>                0.0000
     28 O28         -2.4207  -5.7624   1.8246 O.co2          1 <1>                0.0000
     29 C29          1.2393   4.2553  -2.1424 C.ar           1 <1>                0.0000
     30 N30          1.2261   5.5757  -2.1347 N.ar           1 <1>                0.0000
     31 C31          0.0678   6.2195  -2.1251 C.ar           1 <1>                0.0000
     32 N32          0.0022   7.5971  -2.1228 N.pl3          1 <1>                0.0000
     33 H33          0.8203   8.1184  -2.1283 H              1 <1>                0.0000
     34 H34         -0.3858  10.0917  -2.1057 H              1 <1>                0.0000
     35 H35         -2.0657  10.0689  -2.0937 H              1 <1>                0.0000
     36 H36         -0.7511   1.6513  -2.7375 H              1 <1>                0.0000
     37 H37          1.0223   1.6917  -2.5909 H              1 <1>                0.0000
     38 H38         -0.0926   2.1553  -0.0377 H              1 <1>                0.0000
     39 H39          0.1867  -0.3619  -2.6040 H              1 <1>                0.0000
     40 H40          0.2065  -2.7805  -2.1770 H              1 <1>                0.0000
     41 H41         -0.1791  -2.0312   2.0317 H              1 <1>                0.0000
     42 H42         -0.1915   0.3857   1.5949 H              1 <1>                0.0000
     43 H43         -0.1521  -3.8531   2.2169 H              1 <1>                0.0000
     44 H44          0.6031  -6.4102   1.0260 H              1 <1>                0.0000
     45 H45         -0.1803  -5.6161   3.8658 H              1 <1>                0.0000
     46 H46          0.3560  -7.2434   3.3833 H              1 <1>                0.0000
     47 H47          2.5024  -6.2975   2.5791 H              1 <1>                0.0000
     48 H48          1.9661  -4.6703   3.0616 H              1 <1>                0.0000
     49 H49          2.1825   3.7292  -2.1499 H              1 <1>                0.0000
@<TRIPOS>BOND
    1    1    2 1     
    2    1   34 1     
    3    1   35 1     
    4    2   32 1     
    5    2    3 2     
    6    3    4 1     
    7    4    5 2     
    8    4    6 1     
    9    6   31 ar    
   10    6    7 ar    
   11    7    8 ar    
   12    8    9 1     
   13    8   29 ar    
   14    9   10 1     
   15    9   36 1     
   16    9   37 1     
   17   10   11 1     
   18   10   38 1     
   19   11   16 ar    
   20   11   12 ar    
   21   12   13 ar    
   22   12   39 1     
   23   13   14 ar    
   24   13   40 1     
   25   14   15 ar    
   26   14   17 1     
   27   15   16 ar    
   28   15   41 1     
   29   16   42 1     
   30   17   18 2     
   31   17   19 am    
   32   19   20 1     
   33   19   43 1     
   34   20   21 1     
   35   20   26 1     
   36   20   44 1     
   37   21   22 1     
   38   21   45 1     
   39   21   46 1     
   40   22   23 1     
   41   22   47 1     
   42   22   48 1     
   43   23   24 ar    
   44   23   25 ar    
   45   26   27 ar    
   46   26   28 ar    
   47   29   30 ar    
   48   29   49 1     
   49   30   31 ar    
   50   31   32 1     
   51   32   33 1     
@<TRIPOS>SUBSTRUCTURE
      1 ****           1
@<TRIPOS>SET
DONOR_HYDROGENS      STATIC     ATOMS    <user>   **** ""
5 34 35 38 43 33
ATOM$RED        STATIC     ATOMS    COLORGROUP SYSTEM
5 34 35 38 43 33
