#       Name:                FP0
#       Creating user name   gbret
#       Creation time:       Fri Sep  9 08:05:56 2016


#       File generated by GOLD software.
#

@<TRIPOS>MOLECULE
FP0
    46    49     1
SMALL
NO_CHARGES


@<TRIPOS>ATOM
      1 C1           3.0329   3.5846  -1.2601 C.3            1 <1>                0.0000
      2 C2           3.0421   2.0777  -1.2546 C.2            1 <1>                0.0000
      3 O3           4.0920   1.4799  -1.2404 O.2            1 <1>                0.0000
      4 O4           1.8838   1.3994  -1.2654 O.3            1 <1>                0.0000
      5 C5           1.9686  -0.0501  -1.2592 C.3            1 <1>                0.0000
      6 C6           1.9112  -0.5760   0.1879 C.3            1 <1>                0.0000
      7 C7           0.6177  -1.4329   0.2838 C.3            1 <1>                0.0000
      8 C8           0.6846  -2.5530   1.3238 C.3            1 <1>                0.0000
      9 C9           0.4349  -1.9164  -1.1712 C.3            1 <1>                0.0000
     10 C10          0.8256  -3.3091  -1.6196 C.3            1 <1>                0.0000
     11 O11         -0.5356  -2.8675  -1.5482 O.3            1 <1>                0.0000
     12 C12          0.7500  -0.6560  -1.9986 C.3            1 <1>                0.0000
     13 O13         -0.3612   0.2501  -1.7945 O.3            1 <1>                0.0000
     14 C14         -1.2650  -0.2516  -0.8123 C.3            1 <1>                0.0000
     15 C15         -2.4608   0.6219  -0.6116 C.2            1 <1>                0.0000
     16 C16         -3.0235   0.7782   0.5492 C.2            1 <1>                0.0000
     17 C17         -4.2384   1.6670   0.6212 C.3            1 <1>                0.0000
     18 C18         -2.5547   0.1398   1.8219 C.3            1 <1>                0.0000
     19 C19         -1.5268  -0.9617   1.5429 C.3            1 <1>                0.0000
     20 C20         -0.5256  -0.4232   0.5213 C.3            1 <1>                0.0000
     21 C21          0.0452   0.9132   1.0000 C.3            1 <1>                0.0000
     22 O22          0.6332   0.7448   2.2915 O.3            1 <1>                0.0000
     23 H23          4.0583   3.9542  -1.2497 H              1 <1>                0.0000
     24 H24          2.5272   3.9416  -2.1573 H              1 <1>                0.0000
     25 H25          2.5068   3.9480  -0.3774 H              1 <1>                0.0000
     26 H26          2.8935  -0.3718  -1.7378 H              1 <1>                0.0000
     27 H27          2.7856  -1.1919   0.3982 H              1 <1>                0.0000
     28 H28          1.8617   0.2577   0.8884 H              1 <1>                0.0000
     29 H29          0.8701  -2.1239   2.3085 H              1 <1>                0.0000
     30 H30         -0.2613  -3.0946   1.3358 H              1 <1>                0.0000
     31 H31          1.4925  -3.2385   1.0681 H              1 <1>                0.0000
     32 H32          1.2739  -3.4188  -2.6070 H              1 <1>                0.0000
     33 H33          1.1740  -4.0091  -0.8602 H              1 <1>                0.0000
     34 H34          0.9507  -0.8719  -3.0480 H              1 <1>                0.0000
     35 H35         -1.6164  -1.2308  -1.1374 H              1 <1>                0.0000
     36 H36         -2.8725   1.1432  -1.4632 H              1 <1>                0.0000
     37 H37         -4.4616   2.0583  -0.3713 H              1 <1>                0.0000
     38 H38         -5.0893   1.0907   0.9844 H              1 <1>                0.0000
     39 H39         -4.0429   2.4950   1.3027 H              1 <1>                0.0000
     40 H40         -2.1000   0.9003   2.4568 H              1 <1>                0.0000
     41 H41         -3.4101  -0.2928   2.3409 H              1 <1>                0.0000
     42 H42         -1.0079  -1.2240   2.4649 H              1 <1>                0.0000
     43 H43         -2.0289  -1.8408   1.1388 H              1 <1>                0.0000
     44 H44          0.8043   1.2567   0.2972 H              1 <1>                0.0000
     45 H45         -0.7557   1.6502   1.0587 H              1 <1>                0.0000
     46 H46          1.0161   1.5537   2.6578 H              1 <1>                0.0000
@<TRIPOS>BOND
    1    1    2 1     
    2    1   23 1     
    3    1   24 1     
    4    1   25 1     
    5    2    3 2     
    6    2    4 1     
    7    4    5 1     
    8    5   12 1     
    9    5    6 1     
   10    5   26 1     
   11    6    7 1     
   12    6   27 1     
   13    6   28 1     
   14    7   20 1     
   15    7    8 1     
   16    7    9 1     
   17    8   29 1     
   18    8   30 1     
   19    8   31 1     
   20    9   11 1     
   21    9   10 1     
   22    9   12 1     
   23   10   11 1     
   24   10   32 1     
   25   10   33 1     
   26   12   13 1     
   27   12   34 1     
   28   13   14 1     
   29   14   20 1     
   30   14   15 1     
   31   14   35 1     
   32   15   16 2     
   33   15   36 1     
   34   16   17 1     
   35   16   18 1     
   36   17   37 1     
   37   17   38 1     
   38   17   39 1     
   39   18   19 1     
   40   18   40 1     
   41   18   41 1     
   42   19   20 1     
   43   19   42 1     
   44   19   43 1     
   45   20   21 1     
   46   21   22 1     
   47   21   44 1     
   48   21   45 1     
   49   22   46 1     
@<TRIPOS>SUBSTRUCTURE
      1 ****           1
@<TRIPOS>SET
DONOR_HYDROGENS      STATIC     ATOMS    <user>   **** ""
1 46
ATOM$RED        STATIC     ATOMS    COLORGROUP SYSTEM
1 46
