#       Name:                FPB
#       Creating user name   gbret
#       Creation time:       Fri Sep  9 08:06:26 2016


#       File generated by GOLD software.
#

@<TRIPOS>MOLECULE
FPB
    55    57     1
SMALL
NO_CHARGES


@<TRIPOS>ATOM
      1 N1          -1.4250  -2.4987  -2.2397 N.4            1 <1>                0.0000
      2 H2          -1.3316  -3.5026  -2.2780 H              1 <1>                0.0000
      3 H3          -0.5089  -2.0764  -2.2156 H              1 <1>                0.0000
      4 H4          -1.9229  -2.1758  -3.0557 H              1 <1>                0.0000
      5 C5          -2.1697  -2.1220  -1.0308 C.3            1 <1>                0.0000
      6 C6          -2.3113  -0.5997  -0.9726 C.3            1 <1>                0.0000
      7 C7          -0.9495   0.0258  -0.8131 C.2            1 <1>                0.0000
      8 O8           0.0371  -0.6769  -0.7519 O.2            1 <1>                0.0000
      9 N9          -0.8281   1.3660  -0.7383 N.am           1 <1>                0.0000
     10 C10         -1.9248   2.3383  -0.8970 C.3            1 <1>                0.0000
     11 C11         -1.2308   3.6497  -1.3421 C.3            1 <1>                0.0000
     12 C12          0.0799   3.6054  -0.5130 C.3            1 <1>                0.0000
     13 C13          0.4190   2.1002  -0.4788 C.3            1 <1>                0.0000
     14 C14          0.9765   1.7235   0.8953 C.3            1 <1>                0.0000
     15 N15          2.2537   2.4086   1.1087 N.am           1 <1>                0.0000
     16 C16          2.9803   2.1508   2.2142 C.2            1 <1>                0.0000
     17 O17          2.5758   1.3499   3.0342 O.2            1 <1>                0.0000
     18 C18          4.2693   2.8423   2.4295 C.ar           1 <1>                0.0000
     19 C19          4.7338   3.7668   1.4927 C.ar           1 <1>                0.0000
     20 C20          5.9371   4.4088   1.6998 C.ar           1 <1>                0.0000
     21 C21          6.6833   4.1377   2.8330 C.ar           1 <1>                0.0000
     22 C22          6.2288   3.2220   3.7653 C.ar           1 <1>                0.0000
     23 C23          5.0241   2.5776   3.5733 C.ar           1 <1>                0.0000
     24 C24         -3.5587  -2.7624  -1.0672 C.3            1 <1>                0.0000
     25 C25         -3.4226  -4.2617  -1.0006 C.ar           1 <1>                0.0000
     26 C26         -3.4048  -5.0067  -2.1647 C.ar           1 <1>                0.0000
     27 C27         -3.2798  -6.3820  -2.1039 C.ar           1 <1>                0.0000
     28 C28         -3.1726  -7.0140  -0.8788 C.ar           1 <1>                0.0000
     29 C29         -3.1897  -6.2713   0.2862 C.ar           1 <1>                0.0000
     30 C30         -3.3095  -4.8929   0.2263 C.ar           1 <1>                0.0000
     31 F31         -3.3264  -4.1657   1.3648 F              1 <1>                0.0000
     32 H32         -1.6318  -2.4708  -0.1492 H              1 <1>                0.0000
     33 H33         -2.7696  -0.2419  -1.8946 H              1 <1>                0.0000
     34 H34         -2.9388  -0.3253  -0.1246 H              1 <1>                0.0000
     35 H35         -2.6236   2.0003  -1.6622 H              1 <1>                0.0000
     36 H36         -2.4415   2.4854   0.0514 H              1 <1>                0.0000
     37 H37         -1.0177   3.6357  -2.4110 H              1 <1>                0.0000
     38 H38         -1.8318   4.5194  -1.0766 H              1 <1>                0.0000
     39 H39          0.8695   4.1697  -1.0094 H              1 <1>                0.0000
     40 H40         -0.0889   3.9820   0.4958 H              1 <1>                0.0000
     41 H41          1.1489   1.8668  -1.2539 H              1 <1>                0.0000
     42 H42          0.2696   2.0235   1.6689 H              1 <1>                0.0000
     43 H43          1.1303   0.6454   0.9420 H              1 <1>                0.0000
     44 H44          2.5765   3.0478   0.4543 H              1 <1>                0.0000
     45 H45          4.1526   3.9788   0.6074 H              1 <1>                0.0000
     46 H46          6.2977   5.1244   0.9757 H              1 <1>                0.0000
     47 H47          7.6249   4.6428   2.9903 H              1 <1>                0.0000
     48 H48          6.8162   3.0145   4.6475 H              1 <1>                0.0000
     49 H49          4.6703   1.8633   4.3019 H              1 <1>                0.0000
     50 H50         -4.1426  -2.4124  -0.2159 H              1 <1>                0.0000
     51 H51         -4.0629  -2.4841  -1.9927 H              1 <1>                0.0000
     52 H52         -3.4888  -4.5142  -3.1221 H              1 <1>                0.0000
     53 H53         -3.2664  -6.9633  -3.0140 H              1 <1>                0.0000
     54 H54         -3.0757  -8.0886  -0.8325 H              1 <1>                0.0000
     55 H55         -3.1062  -6.7652   1.2430 H              1 <1>                0.0000
@<TRIPOS>BOND
    1    1    2 1     
    2    1    3 1     
    3    1    4 1     
    4    1    5 1     
    5    5    6 1     
    6    5   24 1     
    7    5   32 1     
    8    6    7 1     
    9    6   33 1     
   10    6   34 1     
   11    7    8 2     
   12    7    9 am    
   13    9   13 1     
   14    9   10 1     
   15   10   11 1     
   16   10   35 1     
   17   10   36 1     
   18   11   12 1     
   19   11   37 1     
   20   11   38 1     
   21   12   13 1     
   22   12   39 1     
   23   12   40 1     
   24   13   14 1     
   25   13   41 1     
   26   14   15 1     
   27   14   42 1     
   28   14   43 1     
   29   15   16 am    
   30   15   44 1     
   31   16   17 2     
   32   16   18 1     
   33   18   23 ar    
   34   18   19 ar    
   35   19   20 ar    
   36   19   45 1     
   37   20   21 ar    
   38   20   46 1     
   39   21   22 ar    
   40   21   47 1     
   41   22   23 ar    
   42   22   48 1     
   43   23   49 1     
   44   24   25 1     
   45   24   50 1     
   46   24   51 1     
   47   25   30 ar    
   48   25   26 ar    
   49   26   27 ar    
   50   26   52 1     
   51   27   28 ar    
   52   27   53 1     
   53   28   29 ar    
   54   28   54 1     
   55   29   30 ar    
   56   29   55 1     
   57   30   31 1     
@<TRIPOS>SUBSTRUCTURE
      1 ****           1
@<TRIPOS>SET
DONOR_HYDROGENS      STATIC     ATOMS    <user>   **** ""
4 2 3 4 44
ATOM$RED        STATIC     ATOMS    COLORGROUP SYSTEM
4 2 3 4 44
