#       Name:                FPP
#       Creating user name   gbret
#       Creation time:       Fri Sep  9 08:07:16 2016


#       File generated by GOLD software.
#

@<TRIPOS>MOLECULE
FPP
    49    48     1
SMALL
NO_CHARGES


@<TRIPOS>ATOM
      1 C1           5.6361  -0.7406   0.1637 C.3            1 <1>                0.0000
      2 C2           5.6792  -2.2444   0.2529 C.2            1 <1>                0.0000
      3 C3           7.0039  -2.9626   0.2341 C.3            1 <1>                0.0000
      4 C4           4.5652  -2.9272   0.3469 C.2            1 <1>                0.0000
      5 C5           3.2405  -2.2090   0.3657 C.3            1 <1>                0.0000
      6 C6           2.3441  -2.7630  -0.7435 C.3            1 <1>                0.0000
      7 C7           1.0194  -2.0448  -0.7247 C.2            1 <1>                0.0000
      8 C8          -0.0778  -2.5118   0.1967 C.3            1 <1>                0.0000
      9 C9           0.8217  -1.0146  -1.5093 C.2            1 <1>                0.0000
     10 C10         -0.4551  -0.2210  -1.4037 C.3            1 <1>                0.0000
     11 C11         -0.1210   1.2558  -1.1837 C.3            1 <1>                0.0000
     12 C12         -1.3979   2.0493  -1.0781 C.2            1 <1>                0.0000
     13 C13         -2.0856   2.5398  -2.3261 C.3            1 <1>                0.0000
     14 C14         -1.9099   2.3126   0.0986 C.2            1 <1>                0.0000
     15 C15         -3.1867   3.1061   0.2042 C.3            1 <1>                0.0000
     16 O16         -4.0591   2.4815   1.1481 O.3            1 <1>                0.0000
     17 P17         -5.5163   3.0610   1.5123 P.3            1 <1>                0.0000
     18 O18         -5.3664   4.4348   2.2031 O.co2          1 <1>                0.0000
     19 O19         -6.3444   3.2230   0.2180 O.co2          1 <1>                0.0000
     20 O20         -6.2670   2.0400   2.5054 O.3            1 <1>                0.0000
     21 P21         -7.8074   1.8000   2.9074 P.3            1 <1>                0.0000
     22 O22         -8.5121   0.9534   1.7933 O.co2          1 <1>                0.0000
     23 O23         -7.8777   1.0311   4.2706 O.co2          1 <1>                0.0000
     24 O24         -8.5315   3.1820   3.0495 O.co2          1 <1>                0.0000
     25 H25          6.6518  -0.3516   0.0922 H              1 <1>                0.0000
     26 H26          5.0708  -0.4452  -0.7202 H              1 <1>                0.0000
     27 H27          5.1544  -0.3375   1.0545 H              1 <1>                0.0000
     28 H28          7.3716  -3.0736   1.2542 H              1 <1>                0.0000
     29 H29          6.8769  -3.9474  -0.2155 H              1 <1>                0.0000
     30 H30          7.7214  -2.3863  -0.3500 H              1 <1>                0.0000
     31 H31          4.5961  -4.0048   0.4108 H              1 <1>                0.0000
     32 H32          2.7588  -2.3603   1.3317 H              1 <1>                0.0000
     33 H33          3.4026  -1.1433   0.2036 H              1 <1>                0.0000
     34 H34          2.8258  -2.6116  -1.7095 H              1 <1>                0.0000
     35 H35          2.1820  -3.8286  -0.5814 H              1 <1>                0.0000
     36 H36          0.2354  -3.4261   0.7006 H              1 <1>                0.0000
     37 H37         -0.2823  -1.7399   0.9386 H              1 <1>                0.0000
     38 H38         -0.9802  -2.7071  -0.3826 H              1 <1>                0.0000
     39 H39          1.5737  -0.7339  -2.2318 H              1 <1>                0.0000
     40 H40         -1.0282  -0.3307  -2.3243 H              1 <1>                0.0000
     41 H41         -1.0434  -0.5895  -0.5633 H              1 <1>                0.0000
     42 H42          0.4521   1.3654  -0.2631 H              1 <1>                0.0000
     43 H43          0.4673   1.6243  -2.0241 H              1 <1>                0.0000
     44 H44         -2.7959   1.7875  -2.6691 H              1 <1>                0.0000
     45 H45         -2.6153   3.4672  -2.1084 H              1 <1>                0.0000
     46 H46         -1.3429   2.7195  -3.1034 H              1 <1>                0.0000
     47 H47         -1.4171   1.9611   0.9929 H              1 <1>                0.0000
     48 H48         -2.9586   4.1192   0.5354 H              1 <1>                0.0000
     49 H49         -3.6730   3.1435  -0.7706 H              1 <1>                0.0000
@<TRIPOS>BOND
    1    1    2 1     
    2    1   25 1     
    3    1   26 1     
    4    1   27 1     
    5    2    3 1     
    6    2    4 2     
    7    3   28 1     
    8    3   29 1     
    9    3   30 1     
   10    4    5 1     
   11    4   31 1     
   12    5    6 1     
   13    5   32 1     
   14    5   33 1     
   15    6    7 1     
   16    6   34 1     
   17    6   35 1     
   18    7    8 1     
   19    7    9 2     
   20    8   36 1     
   21    8   37 1     
   22    8   38 1     
   23    9   10 1     
   24    9   39 1     
   25   10   11 1     
   26   10   40 1     
   27   10   41 1     
   28   11   12 1     
   29   11   42 1     
   30   11   43 1     
   31   12   13 1     
   32   12   14 2     
   33   13   44 1     
   34   13   45 1     
   35   13   46 1     
   36   14   15 1     
   37   14   47 1     
   38   15   16 1     
   39   15   48 1     
   40   15   49 1     
   41   16   17 1     
   42   17   18 ar    
   43   17   19 ar    
   44   17   20 1     
   45   20   21 1     
   46   21   22 ar    
   47   21   23 ar    
   48   21   24 ar    
@<TRIPOS>SUBSTRUCTURE
      1 ****           1
