#       Name:                FTA
#       Creating user name   gbret
#       Creation time:       Fri Sep  9 08:12:31 2016


#       File generated by GOLD software.
#

@<TRIPOS>MOLECULE
FTA
    35    37     1
SMALL
NO_CHARGES


@<TRIPOS>ATOM
      1 N1          -4.7109  -3.7224   0.1273 N.1            1 <1>                0.0000
      2 C2          -4.7063  -2.5874   0.1762 C.1            1 <1>                0.0000
      3 C3          -4.7005  -1.1568   0.2378 C.2            1 <1>                0.0000
      4 C4          -3.5207  -0.4830   0.2805 C.2            1 <1>                0.0000
      5 N5          -2.3387  -1.1718   0.2645 N.pl3          1 <1>                0.0000
      6 C6          -1.1242  -0.4783   0.3085 C.ar           1 <1>                0.0000
      7 C7          -1.1187   0.9094   0.3741 C.ar           1 <1>                0.0000
      8 C8           0.0794   1.5935   0.4179 C.ar           1 <1>                0.0000
      9 C9           1.2796   0.8944   0.3959 C.ar           1 <1>                0.0000
     10 N10          2.4941   1.5878   0.4403 N.pl3          1 <1>                0.0000
     11 C11          3.6490   1.0083  -0.0904 C.ar           1 <1>                0.0000
     12 C12          3.5620   0.1627  -1.1893 C.ar           1 <1>                0.0000
     13 C13          4.7058  -0.4084  -1.7113 C.ar           1 <1>                0.0000
     14 C14          5.9368  -0.1395  -1.1415 C.ar           1 <1>                0.0000
     15 C15          6.0271   0.7013  -0.0473 C.ar           1 <1>                0.0000
     16 C16          4.8881   1.2808   0.4760 C.ar           1 <1>                0.0000
     17 C17          1.2741  -0.4933   0.3303 C.ar           1 <1>                0.0000
     18 C18          0.0760  -1.1777   0.2923 C.ar           1 <1>                0.0000
     19 C19         -5.9821  -0.4097   0.2489 C.2            1 <1>                0.0000
     20 N20         -6.1310   0.9101   0.2974 N.2            1 <1>                0.0000
     21 N21         -7.3960   1.1591   0.2892 N.2            1 <1>                0.0000
     22 N22         -8.0442   0.0480   0.2376 N.pl3          1 <1>                0.0000
     23 N23         -7.2044  -0.9298   0.2065 N.2            1 <1>                0.0000
     24 H24         -3.5163   0.5960   0.3270 H              1 <1>                0.0000
     25 H25         -2.3426  -2.1409   0.2228 H              1 <1>                0.0000
     26 H26         -2.0518   1.4529   0.3904 H              1 <1>                0.0000
     27 H27          0.0837   2.6722   0.4688 H              1 <1>                0.0000
     28 H28          2.5340   2.4709   0.8396 H              1 <1>                0.0000
     29 H29          2.6008  -0.0480  -1.6345 H              1 <1>                0.0000
     30 H30          4.6388  -1.0661  -2.5653 H              1 <1>                0.0000
     31 H31          6.8298  -0.5876  -1.5518 H              1 <1>                0.0000
     32 H32          6.9901   0.9089   0.3954 H              1 <1>                0.0000
     33 H33          4.9593   1.9377   1.3303 H              1 <1>                0.0000
     34 H34          2.2072  -1.0368   0.3133 H              1 <1>                0.0000
     35 H35          0.0717  -2.2564   0.2413 H              1 <1>                0.0000
@<TRIPOS>BOND
    1    1    2 3     
    2    2    3 1     
    3    3    4 2     
    4    3   19 1     
    5    4    5 1     
    6    4   24 1     
    7    5    6 1     
    8    5   25 1     
    9    6   18 ar    
   10    6    7 ar    
   11    7    8 ar    
   12    7   26 1     
   13    8    9 ar    
   14    8   27 1     
   15    9   10 1     
   16    9   17 ar    
   17   10   11 1     
   18   10   28 1     
   19   11   16 ar    
   20   11   12 ar    
   21   12   13 ar    
   22   12   29 1     
   23   13   14 ar    
   24   13   30 1     
   25   14   15 ar    
   26   14   31 1     
   27   15   16 ar    
   28   15   32 1     
   29   16   33 1     
   30   17   18 ar    
   31   17   34 1     
   32   18   35 1     
   33   19   23 2     
   34   19   20 1     
   35   20   21 2     
   36   21   22 1     
   37   22   23 1     
@<TRIPOS>SUBSTRUCTURE
      1 ****           1
@<TRIPOS>SET
DONOR_HYDROGENS      STATIC     ATOMS    <user>   **** ""
2 25 28
ATOM$RED        STATIC     ATOMS    COLORGROUP SYSTEM
2 25 28
