#       Name:                FTB
#       Creating user name   gbret
#       Creation time:       Fri Sep  9 08:12:35 2016


#       File generated by GOLD software.
#

@<TRIPOS>MOLECULE
FTB
    60    63     1
SMALL
NO_CHARGES


@<TRIPOS>ATOM
      1 C1          -3.4436   4.0252  -1.4147 C.3            1 <1>                0.0000
      2 C2          -3.2413   2.5092  -1.4562 C.3            1 <1>                0.0000
      3 C3          -2.3451   2.0822  -0.2919 C.3            1 <1>                0.0000
      4 C4          -2.1428   0.5662  -0.3334 C.3            1 <1>                0.0000
      5 N5          -1.2847   0.1574   0.7813 N.am           1 <1>                0.0000
      6 C6           0.0905   0.1181   0.6173 C.2            1 <1>                0.0000
      7 N7           0.9094   0.3861  -0.4030 N.2            1 <1>                0.0000
      8 C8           2.1508   0.1889  -0.0389 C.2            1 <1>                0.0000
      9 C9           3.3559   0.3886  -0.9214 C.3            1 <1>                0.0000
     10 C10          3.1981  -0.4265  -2.1791 C.ar           1 <1>                0.0000
     11 C11          3.6640  -1.7278  -2.2208 C.ar           1 <1>                0.0000
     12 C12          3.5209  -2.4775  -3.3719 C.ar           1 <1>                0.0000
     13 C13          2.9079  -1.9233  -4.4880 C.ar           1 <1>                0.0000
     14 N14          2.7610  -2.6803  -5.6556 N.am           1 <1>                0.0000
     15 C15          2.5603  -4.0106  -5.5754 C.2            1 <1>                0.0000
     16 C16          2.5208  -4.8437  -6.8306 C.3            1 <1>                0.0000
     17 O17          2.4114  -4.5373  -4.4930 O.2            1 <1>                0.0000
     18 C18          2.4407  -0.6163  -4.4427 C.ar           1 <1>                0.0000
     19 C19          2.5826   0.1265  -3.2870 C.ar           1 <1>                0.0000
     20 N20          2.1885  -0.2189   1.2447 N.pl3          1 <1>                0.0000
     21 H21          2.9825  -0.4338   1.7588 H              1 <1>                0.0000
     22 C22          0.8827  -0.2729   1.6894 C.2            1 <1>                0.0000
     23 C23          0.2653  -0.6178   2.9110 C.2            1 <1>                0.0000
     24 O24          0.9383  -0.9633   3.8655 O.2            1 <1>                0.0000
     25 N25         -1.0792  -0.5597   3.0091 N.am           1 <1>                0.0000
     26 C26         -1.7264  -0.9163   4.2741 C.3            1 <1>                0.0000
     27 C27         -1.8588   0.3135   5.1349 C.ar           1 <1>                0.0000
     28 C28         -0.9522   0.5465   6.1519 C.ar           1 <1>                0.0000
     29 C29         -1.0734   1.6745   6.9416 C.ar           1 <1>                0.0000
     30 C30         -2.1013   2.5710   6.7151 C.ar           1 <1>                0.0000
     31 C31         -3.0085   2.3405   5.6987 C.ar           1 <1>                0.0000
     32 C32         -2.8850   1.2135   4.9036 C.ar           1 <1>                0.0000
     33 F33         -3.7714   0.9870   3.9095 F              1 <1>                0.0000
     34 C34         -1.8333  -0.1743   1.9653 C.2            1 <1>                0.0000
     35 O35         -3.0422  -0.1340   2.0904 O.2            1 <1>                0.0000
     36 H36         -2.4776   4.5231  -1.4983 H              1 <1>                0.0000
     37 H37         -4.0821   4.3294  -2.2441 H              1 <1>                0.0000
     38 H38         -3.9153   4.3031  -0.4722 H              1 <1>                0.0000
     39 H39         -4.2074   2.0113  -1.3726 H              1 <1>                0.0000
     40 H40         -2.7696   2.2312  -2.3987 H              1 <1>                0.0000
     41 H41         -1.3791   2.5801  -0.3755 H              1 <1>                0.0000
     42 H42         -2.8168   2.3602   0.6506 H              1 <1>                0.0000
     43 H43         -3.1089   0.0683  -0.2499 H              1 <1>                0.0000
     44 H44         -1.6712   0.2882  -1.2759 H              1 <1>                0.0000
     45 H45          3.4453   1.4435  -1.1810 H              1 <1>                0.0000
     46 H46          4.2522   0.0678  -0.3906 H              1 <1>                0.0000
     47 H47          4.1405  -2.1583  -1.3525 H              1 <1>                0.0000
     48 H48          3.8856  -3.4936  -3.4041 H              1 <1>                0.0000
     49 H49          2.8036  -2.2477  -6.5227 H              1 <1>                0.0000
     50 H50          2.6725  -4.2013  -7.6980 H              1 <1>                0.0000
     51 H51          3.3093  -5.5953  -6.7927 H              1 <1>                0.0000
     52 H52          1.5520  -5.3371  -6.9088 H              1 <1>                0.0000
     53 H53          1.9636  -0.1825  -5.3091 H              1 <1>                0.0000
     54 H54          2.2194   1.1430  -3.2512 H              1 <1>                0.0000
     55 H55         -2.7157  -1.3272   4.0729 H              1 <1>                0.0000
     56 H56         -1.1228  -1.6604   4.7940 H              1 <1>                0.0000
     57 H57         -0.1491  -0.1533   6.3300 H              1 <1>                0.0000
     58 H58         -0.3648   1.8554   7.7363 H              1 <1>                0.0000
     59 H59         -2.1954   3.4517   7.3332 H              1 <1>                0.0000
     60 H60         -3.8115   3.0408   5.5222 H              1 <1>                0.0000
@<TRIPOS>BOND
    1    1    2 1     
    2    1   36 1     
    3    1   37 1     
    4    1   38 1     
    5    2    3 1     
    6    2   39 1     
    7    2   40 1     
    8    3    4 1     
    9    3   41 1     
   10    3   42 1     
   11    4    5 1     
   12    4   43 1     
   13    4   44 1     
   14    5   34 am    
   15    5    6 1     
   16    6   22 2     
   17    6    7 1     
   18    7    8 2     
   19    8    9 1     
   20    8   20 1     
   21    9   10 1     
   22    9   45 1     
   23    9   46 1     
   24   10   19 ar    
   25   10   11 ar    
   26   11   12 ar    
   27   11   47 1     
   28   12   13 ar    
   29   12   48 1     
   30   13   14 1     
   31   13   18 ar    
   32   14   15 am    
   33   14   49 1     
   34   15   16 1     
   35   15   17 2     
   36   16   50 1     
   37   16   51 1     
   38   16   52 1     
   39   18   19 ar    
   40   18   53 1     
   41   19   54 1     
   42   20   21 1     
   43   20   22 1     
   44   22   23 1     
   45   23   24 2     
   46   23   25 am    
   47   25   26 1     
   48   25   34 am    
   49   26   27 1     
   50   26   55 1     
   51   26   56 1     
   52   27   32 ar    
   53   27   28 ar    
   54   28   29 ar    
   55   28   57 1     
   56   29   30 ar    
   57   29   58 1     
   58   30   31 ar    
   59   30   59 1     
   60   31   32 ar    
   61   31   60 1     
   62   32   33 1     
   63   34   35 2     
@<TRIPOS>SUBSTRUCTURE
      1 ****           1
@<TRIPOS>SET
DONOR_HYDROGENS      STATIC     ATOMS    <user>   **** ""
2 49 21
ATOM$RED        STATIC     ATOMS    COLORGROUP SYSTEM
2 49 21
