#       Name:                FU2
#       Creating user name   gbret
#       Creation time:       Fri Sep  9 08:13:39 2016


#       File generated by GOLD software.
#

@<TRIPOS>MOLECULE
FU2
    11    11     1
SMALL
NO_CHARGES


@<TRIPOS>ATOM
      1 O1          -1.6485  -2.4044   0.0018 O.2            1 <1>                0.0000
      2 C2          -1.6650  -1.1901   0.0085 C.2            1 <1>                0.0000
      3 C3          -0.4509  -0.4669   0.0008 C.2            1 <1>                0.0000
      4 C4          -0.3223   0.9077   0.0125 C.2            1 <1>                0.0000
      5 C5           1.0522   1.1794  -0.0015 C.2            1 <1>                0.0000
      6 C6           1.6957  -0.0105  -0.0208 C.2            1 <1>                0.0000
      7 O7           0.7910  -0.9967  -0.0134 O.3            1 <1>                0.0000
      8 H8          -2.6075  -0.6629   0.0158 H              1 <1>                0.0000
      9 H9          -1.1238   1.6314   0.0288 H              1 <1>                0.0000
     10 H10          1.5122   2.1566   0.0020 H              1 <1>                0.0000
     11 H11          2.7674  -0.1432  -0.0350 H              1 <1>                0.0000
@<TRIPOS>BOND
    1    1    2 2     
    2    2    3 1     
    3    2    8 1     
    4    3    7 1     
    5    3    4 2     
    6    4    5 1     
    7    4    9 1     
    8    5    6 2     
    9    5   10 1     
   10    6    7 1     
   11    6   11 1     
@<TRIPOS>SUBSTRUCTURE
      1 ****           1
