#       Name:                FU3
#       Creating user name   gbret
#       Creation time:       Fri Sep  9 08:13:42 2016


#       File generated by GOLD software.
#

@<TRIPOS>MOLECULE
FU3
    55    58     1
SMALL
NO_CHARGES


@<TRIPOS>ATOM
      1 N1           0.4391   5.7325  -0.4692 N.pl3          1 <1>                0.0000
      2 C2           0.4838   4.3917  -0.1287 C.ar           1 <1>                0.0000
      3 N3          -0.6411   3.7715   0.1979 N.ar           1 <1>                0.0000
      4 C4          -0.6395   2.4887   0.5293 C.ar           1 <1>                0.0000
      5 C5          -1.7469   1.5518   0.9352 C.3            1 <1>                0.0000
      6 N6          -1.1483   0.2363   1.1868 N.am           1 <1>                0.0000
      7 C7           0.2917   0.3704   0.9394 C.3            1 <1>                0.0000
      8 C8           0.5535   1.7953   0.5323 C.ar           1 <1>                0.0000
      9 C9           1.7250   2.4728   0.1840 C.ar           1 <1>                0.0000
     10 N10          1.6480   3.7623  -0.1433 N.ar           1 <1>                0.0000
     11 C11          3.0281   1.7690   0.1739 C.ar           1 <1>                0.0000
     12 C12          4.0861   2.2417   0.9515 C.ar           1 <1>                0.0000
     13 Cl13         3.8778   3.6576   1.9341 Cl             1 <1>                0.0000
     14 C14          5.2983   1.5815   0.9386 C.ar           1 <1>                0.0000
     15 C15          5.4687   0.4512   0.1559 C.ar           1 <1>                0.0000
     16 Cl16         6.9975  -0.3712   0.1473 Cl             1 <1>                0.0000
     17 C17          4.4267  -0.0253  -0.6182 C.ar           1 <1>                0.0000
     18 C18          3.2023   0.6239  -0.6108 C.ar           1 <1>                0.0000
     19 O19          2.1788   0.1566  -1.3706 O.3            1 <1>                0.0000
     20 C20          2.4333  -1.0105  -2.1550 C.3            1 <1>                0.0000
     21 C21          1.1728  -1.3840  -2.9375 C.3            1 <1>                0.0000
     22 C22          1.4453  -2.6335  -3.7773 C.3            1 <1>                0.0000
     23 C23          0.1848  -3.0070  -4.5599 C.3            1 <1>                0.0000
     24 F24         -0.1724  -1.9482  -5.4016 F              1 <1>                0.0000
     25 F25          0.4340  -4.1496  -5.3278 F              1 <1>                0.0000
     26 F26         -0.8599  -3.2648  -3.6658 F              1 <1>                0.0000
     27 C27         -1.7965  -0.8808   1.5721 C.2            1 <1>                0.0000
     28 O28         -1.1778  -1.9126   1.7479 O.2            1 <1>                0.0000
     29 N29         -3.1304  -0.8541   1.7626 N.am           1 <1>                0.0000
     30 C30         -3.8350  -2.0683   2.1814 C.3            1 <1>                0.0000
     31 C31         -4.3074  -2.0328   3.6445 C.3            1 <1>                0.0000
     32 C32         -5.6067  -1.3933   3.1271 C.3            1 <1>                0.0000
     33 C33         -5.3206  -2.0864   1.7845 C.3            1 <1>                0.0000
     34 H34          1.2541   6.1981  -0.7142 H              1 <1>                0.0000
     35 H35         -0.4078   6.2055  -0.4669 H              1 <1>                0.0000
     36 H36         -2.2274   1.9187   1.8422 H              1 <1>                0.0000
     37 H37         -2.4801   1.4765   0.1321 H              1 <1>                0.0000
     38 H38          0.8463   0.1379   1.8485 H              1 <1>                0.0000
     39 H39          0.5936  -0.3043   0.1382 H              1 <1>                0.0000
     40 H40          6.1169   1.9476   1.5406 H              1 <1>                0.0000
     41 H41          4.5660  -0.9067  -1.2266 H              1 <1>                0.0000
     42 H42          3.2473  -0.8096  -2.8516 H              1 <1>                0.0000
     43 H43          2.7116  -1.8354  -1.4991 H              1 <1>                0.0000
     44 H44          0.3588  -1.5848  -2.2409 H              1 <1>                0.0000
     45 H45          0.8945  -0.5590  -3.5934 H              1 <1>                0.0000
     46 H46          2.2593  -2.4327  -4.4739 H              1 <1>                0.0000
     47 H47          1.7236  -3.4585  -3.1215 H              1 <1>                0.0000
     48 H48         -3.6240  -0.0309   1.6224 H              1 <1>                0.0000
     49 H49         -3.3009  -2.9806   1.9156 H              1 <1>                0.0000
     50 H50         -4.4509  -3.0212   4.0810 H              1 <1>                0.0000
     51 H51         -3.7170  -1.3709   4.2780 H              1 <1>                0.0000
     52 H52         -6.5032  -1.7612   3.6261 H              1 <1>                0.0000
     53 H53         -5.5668  -0.3053   3.0741 H              1 <1>                0.0000
     54 H54         -5.5482  -1.4677   0.9165 H              1 <1>                0.0000
     55 H55         -5.7412  -3.0894   1.7126 H              1 <1>                0.0000
@<TRIPOS>BOND
    1    1    2 1     
    2    1   34 1     
    3    1   35 1     
    4    2   10 ar    
    5    2    3 ar    
    6    3    4 ar    
    7    4    8 ar    
    8    4    5 1     
    9    5    6 1     
   10    5   36 1     
   11    5   37 1     
   12    6    7 1     
   13    6   27 am    
   14    7    8 1     
   15    7   38 1     
   16    7   39 1     
   17    8    9 ar    
   18    9   10 ar    
   19    9   11 1     
   20   11   18 ar    
   21   11   12 ar    
   22   12   13 1     
   23   12   14 ar    
   24   14   15 ar    
   25   14   40 1     
   26   15   16 1     
   27   15   17 ar    
   28   17   18 ar    
   29   17   41 1     
   30   18   19 1     
   31   19   20 1     
   32   20   21 1     
   33   20   42 1     
   34   20   43 1     
   35   21   22 1     
   36   21   44 1     
   37   21   45 1     
   38   22   23 1     
   39   22   46 1     
   40   22   47 1     
   41   23   24 1     
   42   23   25 1     
   43   23   26 1     
   44   27   28 2     
   45   27   29 am    
   46   29   30 1     
   47   29   48 1     
   48   30   33 1     
   49   30   31 1     
   50   30   49 1     
   51   31   32 1     
   52   31   50 1     
   53   31   51 1     
   54   32   33 1     
   55   32   52 1     
   56   32   53 1     
   57   33   54 1     
   58   33   55 1     
@<TRIPOS>SUBSTRUCTURE
      1 ****           1
@<TRIPOS>SET
DONOR_HYDROGENS      STATIC     ATOMS    <user>   **** ""
3 34 35 48
ATOM$RED        STATIC     ATOMS    COLORGROUP SYSTEM
3 34 35 48
