#       Name:                G6G
#       Creating user name   gbret
#       Creation time:       Fri Sep  9 08:25:25 2016


#       File generated by GOLD software.
#

@<TRIPOS>MOLECULE
G6G
    84    89     1
SMALL
NO_CHARGES


@<TRIPOS>ATOM
      1 C1          -0.9962   7.6481  10.2253 C.3            1 <1>                0.0000
      2 O2          -1.5757   8.5885   9.3188 O.3            1 <1>                0.0000
      3 C3          -1.5843   8.2513   8.0014 C.ar           1 <1>                0.0000
      4 C4          -1.0508   7.0378   7.5930 C.ar           1 <1>                0.0000
      5 C5          -1.0587   6.6949   6.2553 C.ar           1 <1>                0.0000
      6 C6          -1.6014   7.5651   5.3191 C.ar           1 <1>                0.0000
      7 N7          -1.6102   7.2178   3.9623 N.pl3          1 <1>                0.0000
      8 C8          -1.8057   5.9031   3.5872 C.ar           1 <1>                0.0000
      9 N9          -2.0976   4.9845   4.5056 N.ar           1 <1>                0.0000
     10 C10         -2.2855   3.7263   4.1486 C.ar           1 <1>                0.0000
     11 N11         -2.1843   3.3733   2.8792 N.ar           1 <1>                0.0000
     12 C12         -1.8925   4.2863   1.9536 C.ar           1 <1>                0.0000
     13 N13         -1.7082   5.5548   2.3090 N.ar           1 <1>                0.0000
     14 C14         -1.7793   3.8907   0.5318 C.ar           1 <1>                0.0000
     15 C15         -1.3085   4.7958  -0.4224 C.ar           1 <1>                0.0000
     16 C16         -1.2205   4.3775  -1.7395 C.ar           1 <1>                0.0000
     17 C17         -1.5972   3.0888  -2.0707 C.ar           1 <1>                0.0000
     18 N18         -2.0391   2.2501  -1.1539 N.ar           1 <1>                0.0000
     19 C19         -2.1374   2.5983   0.1197 C.ar           1 <1>                0.0000
     20 N20         -2.6068   1.6839   1.0498 N.pl3          1 <1>                0.0000
     21 C21         -2.8754   0.3682   0.6622 C.ar           1 <1>                0.0000
     22 C22         -2.1218  -0.2289  -0.3389 C.ar           1 <1>                0.0000
     23 C23         -2.3918  -1.5351  -0.7207 C.ar           1 <1>                0.0000
     24 N24         -1.6345  -2.1404  -1.7286 N.am           1 <1>                0.0000
     25 C25         -1.2503  -3.4261  -1.6027 C.2            1 <1>                0.0000
     26 O26         -1.6030  -4.0741  -0.6365 O.2            1 <1>                0.0000
     27 C27         -0.3998  -4.0482  -2.6393 C.ar           1 <1>                0.0000
     28 C28          0.0118  -3.3053  -3.7471 C.ar           1 <1>                0.0000
     29 C29          0.8058  -3.8918  -4.7107 C.ar           1 <1>                0.0000
     30 C30          1.1938  -5.2136  -4.5812 C.ar           1 <1>                0.0000
     31 C31          2.0608  -5.8478  -5.6381 C.3            1 <1>                0.0000
     32 N32          3.4753  -5.6539  -5.2924 N.4            1 <1>                0.0000
     33 H33          3.6571  -4.6703  -5.1597 H              1 <1>                0.0000
     34 C34          3.7797  -6.3795  -4.0520 C.3            1 <1>                0.0000
     35 C35          5.2484  -6.1624  -3.6813 C.3            1 <1>                0.0000
     36 N36          6.1034  -6.6460  -4.7745 N.3            1 <1>                0.0000
     37 C37          7.5251  -6.5067  -4.4321 C.3            1 <1>                0.0000
     38 C38          5.7927  -5.9460  -6.0289 C.3            1 <1>                0.0000
     39 C39          4.3195  -6.1652  -6.3802 C.3            1 <1>                0.0000
     40 C40          0.7896  -5.9555  -3.4855 C.ar           1 <1>                0.0000
     41 C41         -0.0001  -5.3796  -2.5120 C.ar           1 <1>                0.0000
     42 C42         -3.4151  -2.2414  -0.1002 C.ar           1 <1>                0.0000
     43 C43         -4.1634  -1.6444   0.8958 C.ar           1 <1>                0.0000
     44 C44         -3.8935  -0.3456   1.2825 C.ar           1 <1>                0.0000
     45 C45         -4.7123   0.3017   2.3695 C.3            1 <1>                0.0000
     46 C46         -2.1356   8.7795   5.7288 C.ar           1 <1>                0.0000
     47 C47         -2.1317   9.1187   7.0675 C.ar           1 <1>                0.0000
     48 H48         -1.5402   6.7053  10.1678 H              1 <1>                0.0000
     49 H49          0.0475   7.4821   9.9587 H              1 <1>                0.0000
     50 H50         -1.0539   8.0395  11.2410 H              1 <1>                0.0000
     51 H51         -0.6288   6.3611   8.3212 H              1 <1>                0.0000
     52 H52         -0.6427   5.7503   5.9373 H              1 <1>                0.0000
     53 H53         -1.4790   7.9007   3.2860 H              1 <1>                0.0000
     54 H54         -2.5221   2.9841   4.8966 H              1 <1>                0.0000
     55 H55         -1.0204   5.7976  -0.1398 H              1 <1>                0.0000
     56 H56         -0.8610   5.0524  -2.5021 H              1 <1>                0.0000
     57 H57         -1.5286   2.7635  -3.0983 H              1 <1>                0.0000
     58 H58         -2.7489   1.9572   1.9696 H              1 <1>                0.0000
     59 H59         -1.3273   0.3223  -0.8199 H              1 <1>                0.0000
     60 H60         -1.3859  -1.6350  -2.5183 H              1 <1>                0.0000
     61 H61         -0.2910  -2.2736  -3.8497 H              1 <1>                0.0000
     62 H62          1.1250  -3.3181  -5.5683 H              1 <1>                0.0000
     63 H63          1.8435  -6.9145  -5.6944 H              1 <1>                0.0000
     64 H64          1.8557  -5.3839  -6.6029 H              1 <1>                0.0000
     65 H65          3.1435  -6.0084  -3.2485 H              1 <1>                0.0000
     66 H66          3.5956  -7.4437  -4.1992 H              1 <1>                0.0000
     67 H67          5.4297  -5.0996  -3.5207 H              1 <1>                0.0000
     68 H68          5.4784  -6.7128  -2.7690 H              1 <1>                0.0000
     69 H69          7.7416  -7.0880  -3.5358 H              1 <1>                0.0000
     70 H70          8.1353  -6.8719  -5.2582 H              1 <1>                0.0000
     71 H71          7.7534  -5.4569  -4.2482 H              1 <1>                0.0000
     72 H72          5.9830  -4.8796  -5.9071 H              1 <1>                0.0000
     73 H73          6.4198  -6.3385  -6.8294 H              1 <1>                0.0000
     74 H74          4.1329  -7.2305  -6.5154 H              1 <1>                0.0000
     75 H75          4.0832  -5.6350  -7.3028 H              1 <1>                0.0000
     76 H76          1.0963  -6.9867  -3.3903 H              1 <1>                0.0000
     77 H77         -0.3149  -5.9598  -1.6572 H              1 <1>                0.0000
     78 H78         -3.6260  -3.2581  -0.3972 H              1 <1>                0.0000
     79 H79         -4.9584  -2.1954   1.3762 H              1 <1>                0.0000
     80 H80         -4.2480   0.1103   3.3369 H              1 <1>                0.0000
     81 H81         -4.7611   1.3768   2.1962 H              1 <1>                0.0000
     82 H82         -5.7200  -0.1137   2.3615 H              1 <1>                0.0000
     83 H83         -2.5579   9.4568   5.0012 H              1 <1>                0.0000
     84 H84         -2.5472  10.0632   7.3863 H              1 <1>                0.0000
@<TRIPOS>BOND
    1    1    2 1     
    2    1   48 1     
    3    1   49 1     
    4    1   50 1     
    5    2    3 1     
    6    3   47 ar    
    7    3    4 ar    
    8    4    5 ar    
    9    4   51 1     
   10    5    6 ar    
   11    5   52 1     
   12    6    7 1     
   13    6   46 ar    
   14    7    8 1     
   15    7   53 1     
   16    8   13 ar    
   17    8    9 ar    
   18    9   10 ar    
   19   10   11 ar    
   20   10   54 1     
   21   11   12 ar    
   22   12   13 ar    
   23   12   14 1     
   24   14   19 ar    
   25   14   15 ar    
   26   15   16 ar    
   27   15   55 1     
   28   16   17 ar    
   29   16   56 1     
   30   17   18 ar    
   31   17   57 1     
   32   18   19 ar    
   33   19   20 1     
   34   20   21 1     
   35   20   58 1     
   36   21   44 ar    
   37   21   22 ar    
   38   22   23 ar    
   39   22   59 1     
   40   23   24 1     
   41   23   42 ar    
   42   24   25 am    
   43   24   60 1     
   44   25   26 2     
   45   25   27 1     
   46   27   41 ar    
   47   27   28 ar    
   48   28   29 ar    
   49   28   61 1     
   50   29   30 ar    
   51   29   62 1     
   52   30   31 1     
   53   30   40 ar    
   54   31   32 1     
   55   31   63 1     
   56   31   64 1     
   57   32   33 1     
   58   32   39 1     
   59   32   34 1     
   60   34   35 1     
   61   34   65 1     
   62   34   66 1     
   63   35   36 1     
   64   35   67 1     
   65   35   68 1     
   66   36   37 1     
   67   36   38 1     
   68   37   69 1     
   69   37   70 1     
   70   37   71 1     
   71   38   39 1     
   72   38   72 1     
   73   38   73 1     
   74   39   74 1     
   75   39   75 1     
   76   40   41 ar    
   77   40   76 1     
   78   41   77 1     
   79   42   43 ar    
   80   42   78 1     
   81   43   44 ar    
   82   43   79 1     
   83   44   45 1     
   84   45   80 1     
   85   45   81 1     
   86   45   82 1     
   87   46   47 ar    
   88   46   83 1     
   89   47   84 1     
@<TRIPOS>SUBSTRUCTURE
      1 ****           1
@<TRIPOS>SET
DONOR_HYDROGENS      STATIC     ATOMS    <user>   **** ""
4 53 58 60 33
ATOM$RED        STATIC     ATOMS    COLORGROUP SYSTEM
4 53 58 60 33
