#       Name:                G93
#       Creating user name   gbret
#       Creation time:       Fri Sep  9 08:28:12 2016


#       File generated by GOLD software.
#

@<TRIPOS>MOLECULE
G93
    59    62     1
SMALL
NO_CHARGES


@<TRIPOS>ATOM
      1 C1           0.4088   2.4267  -2.5959 C.3            1 <1>                0.0000
      2 C2           0.4296   0.8968  -2.6043 C.3            1 <1>                0.0000
      3 N3           1.1381   0.4115  -1.4174 N.pl3          1 <1>                0.0000
      4 C4           2.4812   0.1634  -1.3155 C.2            1 <1>                0.0000
      5 N5           2.7616  -0.2592  -0.1061 N.2            1 <1>                0.0000
      6 C6           1.6379  -0.3079   0.6301 C.ar           1 <1>                0.0000
      7 C7           1.3488  -0.6769   1.9604 C.ar           1 <1>                0.0000
      8 N8           0.1034  -0.6180   2.4116 N.ar           1 <1>                0.0000
      9 C9          -0.9033  -0.2199   1.6554 C.ar           1 <1>                0.0000
     10 C10         -0.7088   0.1602   0.3382 C.ar           1 <1>                0.0000
     11 O11         -1.7578   0.5672  -0.4246 O.3            1 <1>                0.0000
     12 C12         -3.0449   0.5803   0.1961 C.3            1 <1>                0.0000
     13 C13         -4.0915   1.0630  -0.8101 C.3            1 <1>                0.0000
     14 C14         -4.2085   0.0493  -1.9521 C.3            1 <1>                0.0000
     15 C15         -5.3127   0.5018  -2.9119 C.3            1 <1>                0.0000
     16 C16         -6.6231   0.6561  -2.1369 C.3            1 <1>                0.0000
     17 N17         -6.4538   1.6571  -1.0768 N.4            1 <1>                0.0000
     18 H18         -6.1530   2.5297  -1.4845 H              1 <1>                0.0000
     19 H19         -7.3333   1.7944  -0.6017 H              1 <1>                0.0000
     20 C20         -5.4471   1.1965  -0.1130 C.3            1 <1>                0.0000
     21 C21          0.5812   0.1245  -0.1925 C.ar           1 <1>                0.0000
     22 C22          2.4022  -1.1165   2.8252 C.1            1 <1>                0.0000
     23 C23          3.2658  -1.4768   3.5341 C.1            1 <1>                0.0000
     24 C24          4.3486  -1.9286   4.4230 C.3            1 <1>                0.0000
     25 C25          3.7714  -2.2657   5.7993 C.3            1 <1>                0.0000
     26 C26          5.0103  -3.1735   3.8287 C.3            1 <1>                0.0000
     27 O27          5.3208  -0.8897   4.5556 O.3            1 <1>                0.0000
     28 C28          3.4661   0.3441  -2.4045 C.2            1 <1>                0.0000
     29 N29          3.2656   0.7660  -3.6349 N.2            1 <1>                0.0000
     30 O30          4.3178   0.7798  -4.2295 O.3            1 <1>                0.0000
     31 N31          5.2876   0.4217  -3.6038 N.2            1 <1>                0.0000
     32 C32          4.9277   0.1018  -2.3829 C.2            1 <1>                0.0000
     33 N33          5.7170  -0.3566  -1.3364 N.pl3          1 <1>                0.0000
     34 H34          1.4314   2.8040  -2.6036 H              1 <1>                0.0000
     35 H35         -0.1184   2.7877  -3.4789 H              1 <1>                0.0000
     36 H36         -0.1014   2.7782  -1.6991 H              1 <1>                0.0000
     37 H37         -0.5930   0.5195  -2.5965 H              1 <1>                0.0000
     38 H38          0.9398   0.5453  -3.5011 H              1 <1>                0.0000
     39 H39         -1.8989  -0.1905   2.0728 H              1 <1>                0.0000
     40 H40         -3.2980  -0.4262   0.5290 H              1 <1>                0.0000
     41 H41         -3.0279   1.2531   1.0536 H              1 <1>                0.0000
     42 H42         -3.7915   2.0311  -1.2112 H              1 <1>                0.0000
     43 H43         -3.2608  -0.0075  -2.4875 H              1 <1>                0.0000
     44 H44         -4.4581  -0.9307  -1.5454 H              1 <1>                0.0000
     45 H45         -5.0385   1.4581  -3.3573 H              1 <1>                0.0000
     46 H46         -5.4400  -0.2431  -3.6974 H              1 <1>                0.0000
     47 H47         -7.4114   0.9780  -2.8174 H              1 <1>                0.0000
     48 H48         -6.8965  -0.3007  -1.6922 H              1 <1>                0.0000
     49 H49         -5.7456   0.2281   0.2886 H              1 <1>                0.0000
     50 H50         -5.3673   1.9173   0.7007 H              1 <1>                0.0000
     51 H51          3.0298  -3.0581   5.6982 H              1 <1>                0.0000
     52 H52          4.5732  -2.6002   6.4576 H              1 <1>                0.0000
     53 H53          3.3000  -1.3788   6.2227 H              1 <1>                0.0000
     54 H54          5.4215  -2.9334   2.8482 H              1 <1>                0.0000
     55 H55          5.8121  -3.5081   4.4870 H              1 <1>                0.0000
     56 H56          4.2687  -3.9660   3.7276 H              1 <1>                0.0000
     57 H57          5.7293  -0.6245   3.7203 H              1 <1>                0.0000
     58 H58          5.3135  -0.5630  -0.4789 H              1 <1>                0.0000
     59 H59          6.6720  -0.4703  -1.4629 H              1 <1>                0.0000
@<TRIPOS>BOND
    1    1    2 1     
    2    1   34 1     
    3    1   35 1     
    4    1   36 1     
    5    2    3 1     
    6    2   37 1     
    7    2   38 1     
    8    3   21 1     
    9    3    4 1     
   10    4    5 2     
   11    4   28 1     
   12    5    6 1     
   13    6   21 ar    
   14    6    7 ar    
   15    7    8 ar    
   16    7   22 1     
   17    8    9 ar    
   18    9   10 ar    
   19    9   39 1     
   20   10   11 1     
   21   10   21 ar    
   22   11   12 1     
   23   12   13 1     
   24   12   40 1     
   25   12   41 1     
   26   13   20 1     
   27   13   14 1     
   28   13   42 1     
   29   14   15 1     
   30   14   43 1     
   31   14   44 1     
   32   15   16 1     
   33   15   45 1     
   34   15   46 1     
   35   16   17 1     
   36   16   47 1     
   37   16   48 1     
   38   17   18 1     
   39   17   19 1     
   40   17   20 1     
   41   20   49 1     
   42   20   50 1     
   43   22   23 3     
   44   23   24 1     
   45   24   25 1     
   46   24   26 1     
   47   24   27 1     
   48   25   51 1     
   49   25   52 1     
   50   25   53 1     
   51   26   54 1     
   52   26   55 1     
   53   26   56 1     
   54   27   57 1     
   55   28   32 1     
   56   28   29 2     
   57   29   30 1     
   58   30   31 1     
   59   31   32 2     
   60   32   33 1     
   61   33   58 1     
   62   33   59 1     
@<TRIPOS>SUBSTRUCTURE
      1 ****           1
@<TRIPOS>SET
DONOR_HYDROGENS      STATIC     ATOMS    <user>   **** ""
5 18 19 57 58 59
ATOM$RED        STATIC     ATOMS    COLORGROUP SYSTEM
5 18 19 57 58 59
