#       Name:                G9A
#       Creating user name   gbret
#       Creation time:       Fri Sep  9 08:28:38 2016


#       File generated by GOLD software.
#

@<TRIPOS>MOLECULE
G9A
    13    12     1
SMALL
NO_CHARGES


@<TRIPOS>ATOM
      1 O1           2.2500  -1.0344  -0.3795 O.co2          1 <1>                0.0000
      2 C2           2.2334   0.1847  -0.3728 C.2            1 <1>                0.0000
      3 O3           3.2809   0.8086  -0.3794 O.co2          1 <1>                0.0000
      4 C4           0.9183   0.9204  -0.3625 C.3            1 <1>                0.0000
      5 C5          -0.2138  -0.0744  -0.3626 C.2            1 <1>                0.0000
      6 C6          -1.1467  -0.0221   0.5874 C.2            1 <1>                0.0000
      7 C7          -2.2487  -0.9905   0.5874 C.2            1 <1>                0.0000
      8 O8          -2.3112  -1.8463  -0.2851 O.co2          1 <1>                0.0000
      9 O9          -3.1054  -0.9425   1.4599 O.co2          1 <1>                0.0000
     10 H10          0.8562   1.5414   0.5311 H              1 <1>                0.0000
     11 H11          0.8478   1.5510  -1.2488 H              1 <1>                0.0000
     12 H12         -0.2689  -0.8296  -1.1326 H              1 <1>                0.0000
     13 H13         -1.0915   0.7332   1.3575 H              1 <1>                0.0000
@<TRIPOS>BOND
    1    1    2 ar    
    2    2    3 ar    
    3    2    4 1     
    4    4    5 1     
    5    4   10 1     
    6    4   11 1     
    7    5    6 2     
    8    5   12 1     
    9    6    7 1     
   10    6   13 1     
   11    7    8 ar    
   12    7    9 ar    
@<TRIPOS>SUBSTRUCTURE
      1 ****           1
