#       Name:                G9B
#       Creating user name   gbret
#       Creation time:       Fri Sep  9 08:28:42 2016


#       File generated by GOLD software.
#

@<TRIPOS>MOLECULE
G9B
    71    76     1
SMALL
NO_CHARGES


@<TRIPOS>ATOM
      1 C1          -5.4680  -0.2798  -1.7592 C.3            1 <1>                0.0000
      2 C2          -4.4336   0.7728  -1.3558 C.3            1 <1>                0.0000
      3 C3          -3.7157   0.3203  -0.1105 C.2            1 <1>                0.0000
      4 O4          -4.0032  -0.7399   0.4038 O.2            1 <1>                0.0000
      5 N5          -2.7543   1.0936   0.4318 N.am           1 <1>                0.0000
      6 C6          -2.1549   0.7206   1.6399 C.ar           1 <1>                0.0000
      7 C7          -1.7784   1.6925   2.5587 C.ar           1 <1>                0.0000
      8 C8          -1.1862   1.3251   3.7514 C.ar           1 <1>                0.0000
      9 C9          -0.9663  -0.0094   4.0347 C.ar           1 <1>                0.0000
     10 C10         -1.3409  -0.9858   3.1207 C.ar           1 <1>                0.0000
     11 C11         -1.9412  -0.6203   1.9241 C.ar           1 <1>                0.0000
     12 N12         -1.1173  -2.3379   3.4084 N.pl3          1 <1>                0.0000
     13 C13         -0.2702  -3.1838   2.7392 C.2            1 <1>                0.0000
     14 N14         -0.3143  -4.3761   3.2832 N.2            1 <1>                0.0000
     15 C15         -1.1820  -4.3712   4.3236 C.ar           1 <1>                0.0000
     16 C16         -1.6007  -5.3515   5.2298 C.ar           1 <1>                0.0000
     17 C17         -2.5133  -5.0391   6.1968 C.ar           1 <1>                0.0000
     18 C18         -3.0329  -3.7557   6.2922 C.ar           1 <1>                0.0000
     19 C19         -2.6352  -2.7730   5.4103 C.ar           1 <1>                0.0000
     20 C20         -1.7046  -3.0691   4.4241 C.ar           1 <1>                0.0000
     21 C21          0.5655  -2.8085   1.5806 C.ar           1 <1>                0.0000
     22 N22          0.6415  -1.5378   1.1968 N.ar           1 <1>                0.0000
     23 C23          1.3939  -1.2056   0.1549 C.ar           1 <1>                0.0000
     24 C24          2.1042  -2.1879  -0.5375 C.ar           1 <1>                0.0000
     25 N25          2.0313  -3.4509  -0.1602 N.ar           1 <1>                0.0000
     26 C26          1.2871  -3.7920   0.8843 C.ar           1 <1>                0.0000
     27 N27          1.2119  -5.1185   1.2797 N.pl3          1 <1>                0.0000
     28 C28          1.4798   0.2119  -0.2747 C.2            1 <1>                0.0000
     29 C29          0.9077   1.3180   0.3844 C.2            1 <1>                0.0000
     30 N30          1.2016   2.3930  -0.2974 N.2            1 <1>                0.0000
     31 N31          1.9663   2.0199  -1.4092 N.pl3          1 <1>                0.0000
     32 C32          2.1324   0.6827  -1.3772 C.2            1 <1>                0.0000
     33 C33          2.4996   2.9273  -2.4283 C.3            1 <1>                0.0000
     34 C34          3.8588   2.4130  -2.9111 C.3            1 <1>                0.0000
     35 C35          4.3730   3.3205  -4.0307 C.3            1 <1>                0.0000
     36 N36          3.4206   3.3133  -5.1476 N.4            1 <1>                0.0000
     37 H37          3.2833   2.3654  -5.4651 H              1 <1>                0.0000
     38 C38          3.9545   4.1247  -6.2497 C.3            1 <1>                0.0000
     39 C39          2.1358   3.8722  -4.7102 C.3            1 <1>                0.0000
     40 C40          1.5355   2.9859  -3.6167 C.3            1 <1>                0.0000
     41 H41         -6.1883  -0.4096  -0.9515 H              1 <1>                0.0000
     42 H42         -5.9873   0.0475  -2.6599 H              1 <1>                0.0000
     43 H43         -4.9655  -1.2273  -1.9536 H              1 <1>                0.0000
     44 H44         -3.7133   0.9026  -2.1635 H              1 <1>                0.0000
     45 H45         -4.9362   1.7203  -1.1614 H              1 <1>                0.0000
     46 H46         -2.4778   1.9087  -0.0154 H              1 <1>                0.0000
     47 H47         -1.9486   2.7363   2.3400 H              1 <1>                0.0000
     48 H48         -0.8941   2.0824   4.4638 H              1 <1>                0.0000
     49 H49         -0.5025  -0.2934   4.9678 H              1 <1>                0.0000
     50 H50         -2.2336  -1.3777   1.2119 H              1 <1>                0.0000
     51 H51         -1.2033  -6.3536   5.1646 H              1 <1>                0.0000
     52 H52         -2.8342  -5.7988   6.8941 H              1 <1>                0.0000
     53 H53         -3.7540  -3.5250   7.0624 H              1 <1>                0.0000
     54 H54         -3.0431  -1.7761   5.4892 H              1 <1>                0.0000
     55 H55          2.7150  -1.9137  -1.3849 H              1 <1>                0.0000
     56 H56          0.6606  -5.3681   2.0378 H              1 <1>                0.0000
     57 H57          1.7106  -5.7972   0.7983 H              1 <1>                0.0000
     58 H58          0.3269   1.2832   1.2943 H              1 <1>                0.0000
     59 H59          2.6768   0.0902  -2.0976 H              1 <1>                0.0000
     60 H60          2.6157   3.9244  -2.0037 H              1 <1>                0.0000
     61 H61          4.5665   2.4211  -2.0821 H              1 <1>                0.0000
     62 H62          3.7503   1.3959  -3.2879 H              1 <1>                0.0000
     63 H63          4.4815   4.3371  -3.6529 H              1 <1>                0.0000
     64 H64          5.3407   2.9573  -4.3767 H              1 <1>                0.0000
     65 H65          4.9059   3.7079  -6.5800 H              1 <1>                0.0000
     66 H66          3.2480   4.1201  -7.0797 H              1 <1>                0.0000
     67 H67          4.1057   5.1484  -5.9070 H              1 <1>                0.0000
     68 H68          2.2919   4.8771  -4.3178 H              1 <1>                0.0000
     69 H69          1.4519   3.9163  -5.5578 H              1 <1>                0.0000
     70 H70          1.3787   1.9808  -4.0082 H              1 <1>                0.0000
     71 H71          0.5825   3.4035  -3.2921 H              1 <1>                0.0000
@<TRIPOS>BOND
    1    1    2 1     
    2    1   41 1     
    3    1   42 1     
    4    1   43 1     
    5    2    3 1     
    6    2   44 1     
    7    2   45 1     
    8    3    4 2     
    9    3    5 am    
   10    5    6 1     
   11    5   46 1     
   12    6   11 ar    
   13    6    7 ar    
   14    7    8 ar    
   15    7   47 1     
   16    8    9 ar    
   17    8   48 1     
   18    9   10 ar    
   19    9   49 1     
   20   10   11 ar    
   21   10   12 1     
   22   11   50 1     
   23   12   20 1     
   24   12   13 1     
   25   13   14 2     
   26   13   21 1     
   27   14   15 1     
   28   15   20 ar    
   29   15   16 ar    
   30   16   17 ar    
   31   16   51 1     
   32   17   18 ar    
   33   17   52 1     
   34   18   19 ar    
   35   18   53 1     
   36   19   20 ar    
   37   19   54 1     
   38   21   26 ar    
   39   21   22 ar    
   40   22   23 ar    
   41   23   24 ar    
   42   23   28 1     
   43   24   25 ar    
   44   24   55 1     
   45   25   26 ar    
   46   26   27 1     
   47   27   56 1     
   48   27   57 1     
   49   28   32 2     
   50   28   29 1     
   51   29   30 2     
   52   29   58 1     
   53   30   31 1     
   54   31   32 1     
   55   31   33 1     
   56   32   59 1     
   57   33   40 1     
   58   33   34 1     
   59   33   60 1     
   60   34   35 1     
   61   34   61 1     
   62   34   62 1     
   63   35   36 1     
   64   35   63 1     
   65   35   64 1     
   66   36   37 1     
   67   36   38 1     
   68   36   39 1     
   69   38   65 1     
   70   38   66 1     
   71   38   67 1     
   72   39   40 1     
   73   39   68 1     
   74   39   69 1     
   75   40   70 1     
   76   40   71 1     
@<TRIPOS>SUBSTRUCTURE
      1 ****           1
@<TRIPOS>SET
DONOR_HYDROGENS      STATIC     ATOMS    <user>   **** ""
4 46 56 57 37
ATOM$RED        STATIC     ATOMS    COLORGROUP SYSTEM
4 46 56 57 37
