#       Name:                G9G
#       Creating user name   gbret
#       Creation time:       Fri Sep  9 08:28:55 2016


#       File generated by GOLD software.
#

@<TRIPOS>MOLECULE
G9G
    41    44     1
SMALL
NO_CHARGES


@<TRIPOS>ATOM
      1 C1          -0.6429   5.4045   0.8662 C.3            1 <1>                0.0000
      2 N2          -0.6230   3.9356   0.8581 N.4            1 <1>                0.0000
      3 H3          -1.5697   3.5866   0.8653 H              1 <1>                0.0000
      4 C4           0.0639   3.4622  -0.3508 C.3            1 <1>                0.0000
      5 C5           0.0684   1.9321  -0.3690 C.3            1 <1>                0.0000
      6 N6           0.7532   1.4327   0.8317 N.3            1 <1>                0.0000
      7 C7           0.0912   1.9191   2.0504 C.3            1 <1>                0.0000
      8 C8           0.0868   3.4493   2.0486 C.3            1 <1>                0.0000
      9 C9           0.8243   0.0435   0.8236 C.ar           1 <1>                0.0000
     10 C10          1.4361  -0.6204   1.8870 C.ar           1 <1>                0.0000
     11 C11          1.5055  -1.9986   1.8777 C.ar           1 <1>                0.0000
     12 C12          0.9558  -2.6878   0.7945 C.ar           1 <1>                0.0000
     13 N13          1.0084  -4.0715   0.7547 N.am           1 <1>                0.0000
     14 H14          1.4305  -4.5458   1.4880 H              1 <1>                0.0000
     15 C15          0.4931  -4.7795  -0.2667 C.2            1 <1>                0.0000
     16 O16          0.5627  -5.9944  -0.2575 O.2            1 <1>                0.0000
     17 C17         -0.1542  -4.0917  -1.3941 C.ar           1 <1>                0.0000
     18 C18         -0.6964  -4.8015  -2.4645 C.ar           1 <1>                0.0000
     19 C19         -1.2952  -4.1189  -3.5020 C.ar           1 <1>                0.0000
     20 C20         -1.3632  -2.7337  -3.4910 C.ar           1 <1>                0.0000
     21 C21         -0.8325  -2.0134  -2.4407 C.ar           1 <1>                0.0000
     22 C22         -0.2244  -2.6840  -1.3848 C.ar           1 <1>                0.0000
     23 C23          0.3566  -1.9569  -0.2390 C.ar           1 <1>                0.0000
     24 N24          0.3068  -0.6292  -0.1880 N.ar           1 <1>                0.0000
     25 H25          0.3796   5.7818   0.8585 H              1 <1>                0.0000
     26 H26         -1.1701   5.7656  -0.0169 H              1 <1>                0.0000
     27 H27         -1.1531   5.7560   1.7630 H              1 <1>                0.0000
     28 H28         -0.4560   3.8346  -1.2335 H              1 <1>                0.0000
     29 H29          1.0905   3.8286  -0.3524 H              1 <1>                0.0000
     30 H30         -0.9581   1.5655  -0.3813 H              1 <1>                0.0000
     31 H31          0.5911   1.5805  -1.2586 H              1 <1>                0.0000
     32 H32         -0.9349   1.5523   2.0781 H              1 <1>                0.0000
     33 H33          0.6306   1.5580   2.9261 H              1 <1>                0.0000
     34 H34          1.1134   3.8156   2.0347 H              1 <1>                0.0000
     35 H35         -0.4163   3.8123   2.9448 H              1 <1>                0.0000
     36 H36          1.8527  -0.0600   2.7109 H              1 <1>                0.0000
     37 H37          1.9750  -2.5327   2.6905 H              1 <1>                0.0000
     38 H38         -0.6473  -5.8802  -2.4811 H              1 <1>                0.0000
     39 H39         -1.7151  -4.6683  -4.3317 H              1 <1>                0.0000
     40 H40         -1.8354  -2.2143  -4.3118 H              1 <1>                0.0000
     41 H41         -0.8889  -0.9348  -2.4385 H              1 <1>                0.0000
@<TRIPOS>BOND
    1    1    2 1     
    2    1   25 1     
    3    1   26 1     
    4    1   27 1     
    5    2    3 1     
    6    2    8 1     
    7    2    4 1     
    8    4    5 1     
    9    4   28 1     
   10    4   29 1     
   11    5    6 1     
   12    5   30 1     
   13    5   31 1     
   14    6    7 1     
   15    6    9 1     
   16    7    8 1     
   17    7   32 1     
   18    7   33 1     
   19    8   34 1     
   20    8   35 1     
   21    9   24 ar    
   22    9   10 ar    
   23   10   11 ar    
   24   10   36 1     
   25   11   12 ar    
   26   11   37 1     
   27   12   23 ar    
   28   12   13 1     
   29   13   14 1     
   30   13   15 am    
   31   15   16 2     
   32   15   17 1     
   33   17   22 ar    
   34   17   18 ar    
   35   18   19 ar    
   36   18   38 1     
   37   19   20 ar    
   38   19   39 1     
   39   20   21 ar    
   40   20   40 1     
   41   21   22 ar    
   42   21   41 1     
   43   22   23 1     
   44   23   24 ar    
@<TRIPOS>SUBSTRUCTURE
      1 ****           1
@<TRIPOS>SET
DONOR_HYDROGENS      STATIC     ATOMS    <user>   **** ""
2 3 14
ATOM$RED        STATIC     ATOMS    COLORGROUP SYSTEM
2 3 14
