#       Name:                GHC
#       Creating user name   gbret
#       Creation time:       Fri Sep  9 08:40:16 2016


#       File generated by GOLD software.
#

@<TRIPOS>MOLECULE
GHC
    50    52     1
SMALL
NO_CHARGES


@<TRIPOS>ATOM
      1 C1           2.5913  -1.1742   2.9049 C.3            1 <1>                0.0000
      2 C2           2.6121  -2.7041   2.8965 C.3            1 <1>                0.0000
      3 C3           1.1983  -3.2257   2.9072 C.2            1 <1>                0.0000
      4 S4           0.2813  -3.5688   4.3615 S.3            1 <1>                0.0000
      5 C5          -1.1239  -4.0834   3.4376 C.2            1 <1>                0.0000
      6 N6          -2.3296  -4.5288   3.8465 N.2            1 <1>                0.0000
      7 C7          -3.2619  -4.8690   2.9909 C.2            1 <1>                0.0000
      8 N8          -4.4716  -5.3161   3.4610 N.pl3          1 <1>                0.0000
      9 N9          -3.0595  -4.7891   1.6443 N.am           1 <1>                0.0000
     10 H10         -3.7675  -5.0473   1.0336 H              1 <1>                0.0000
     11 C11         -1.8811  -4.3530   1.1588 C.2            1 <1>                0.0000
     12 O12         -1.6956  -4.2792  -0.0439 O.2            1 <1>                0.0000
     13 C13         -0.8543  -3.9792   2.0746 C.2            1 <1>                0.0000
     14 C14          0.4867  -3.4785   1.8192 C.2            1 <1>                0.0000
     15 S15          1.1155  -3.2301   0.1921 S.3            1 <1>                0.0000
     16 C16          0.6582  -1.5653  -0.1597 C.ar           1 <1>                0.0000
     17 C17         -0.0319  -0.8177   0.7923 C.ar           1 <1>                0.0000
     18 C18         -0.3881   0.4730   0.5221 C.ar           1 <1>                0.0000
     19 C19         -0.0590   1.0442  -0.7114 C.ar           1 <1>                0.0000
     20 C20          0.6341   0.2916  -1.6649 C.ar           1 <1>                0.0000
     21 C21          0.9924  -0.9970  -1.3872 C.ar           1 <1>                0.0000
     22 C22         -0.4426   2.4371  -1.0062 C.2            1 <1>                0.0000
     23 O23         -1.0456   3.0904  -0.1764 O.2            1 <1>                0.0000
     24 N24         -0.1248   2.9864  -2.1952 N.am           1 <1>                0.0000
     25 C25         -0.5059   4.3703  -2.4881 C.3            1 <1>                0.0000
     26 C26          0.4430   4.9489  -3.5396 C.3            1 <1>                0.0000
     27 C27          1.8566   5.0323  -2.9602 C.3            1 <1>                0.0000
     28 C28          2.7912   5.6022  -3.9959 C.2            1 <1>                0.0000
     29 O29          2.3661   5.9129  -5.0955 O.co2          1 <1>                0.0000
     30 O30          3.9725   5.7527  -3.7341 O.co2          1 <1>                0.0000
     31 C31         -1.9179   4.4020  -3.0139 C.2            1 <1>                0.0000
     32 O32         -2.6206   5.3783  -2.8152 O.co2          1 <1>                0.0000
     33 O33         -2.3574   3.4513  -3.6381 O.co2          1 <1>                0.0000
     34 H34          3.6139  -0.7969   2.8972 H              1 <1>                0.0000
     35 H35          2.0641  -0.8132   2.0219 H              1 <1>                0.0000
     36 H36          2.0811  -0.8227   3.8017 H              1 <1>                0.0000
     37 H37          3.1223  -3.0556   1.9997 H              1 <1>                0.0000
     38 H38          3.1393  -3.0651   3.7796 H              1 <1>                0.0000
     39 H39         -4.6282  -5.3772   4.4163 H              1 <1>                0.0000
     40 H40         -5.1701  -5.5709   2.8378 H              1 <1>                0.0000
     41 H41         -0.2857  -1.2594   1.7446 H              1 <1>                0.0000
     42 H42         -0.9236   1.0517   1.2601 H              1 <1>                0.0000
     43 H43          0.8895   0.7302  -2.6182 H              1 <1>                0.0000
     44 H44          1.5279  -1.5785  -2.1230 H              1 <1>                0.0000
     45 H45          0.3562   2.4653  -2.8571 H              1 <1>                0.0000
     46 H46         -0.4442   4.9648  -1.5766 H              1 <1>                0.0000
     47 H47          0.4480   4.3042  -4.4185 H              1 <1>                0.0000
     48 H48          0.1069   5.9464  -3.8227 H              1 <1>                0.0000
     49 H49          1.8515   5.6770  -2.0813 H              1 <1>                0.0000
     50 H50          2.1926   4.0348  -2.6771 H              1 <1>                0.0000
@<TRIPOS>BOND
    1    1    2 1     
    2    1   34 1     
    3    1   35 1     
    4    1   36 1     
    5    2    3 1     
    6    2   37 1     
    7    2   38 1     
    8    3   14 2     
    9    3    4 1     
   10    4    5 1     
   11    5   13 2     
   12    5    6 1     
   13    6    7 2     
   14    7    8 1     
   15    7    9 1     
   16    8   39 1     
   17    8   40 1     
   18    9   10 1     
   19    9   11 am    
   20   11   12 2     
   21   11   13 1     
   22   13   14 1     
   23   14   15 1     
   24   15   16 1     
   25   16   21 ar    
   26   16   17 ar    
   27   17   18 ar    
   28   17   41 1     
   29   18   19 ar    
   30   18   42 1     
   31   19   20 ar    
   32   19   22 1     
   33   20   21 ar    
   34   20   43 1     
   35   21   44 1     
   36   22   23 2     
   37   22   24 am    
   38   24   25 1     
   39   24   45 1     
   40   25   26 1     
   41   25   31 1     
   42   25   46 1     
   43   26   27 1     
   44   26   47 1     
   45   26   48 1     
   46   27   28 1     
   47   27   49 1     
   48   27   50 1     
   49   28   29 ar    
   50   28   30 ar    
   51   31   32 ar    
   52   31   33 ar    
@<TRIPOS>SUBSTRUCTURE
      1 ****           1
@<TRIPOS>SET
DONOR_HYDROGENS      STATIC     ATOMS    <user>   **** ""
4 39 40 10 45
ATOM$RED        STATIC     ATOMS    COLORGROUP SYSTEM
4 39 40 10 45
