#       Name:                GKK
#       Creating user name   gbret
#       Creation time:       Fri Sep  9 08:42:52 2016


#       File generated by GOLD software.
#

@<TRIPOS>MOLECULE
GKK
    47    49     1
SMALL
NO_CHARGES


@<TRIPOS>ATOM
      1 C1          -0.4540   4.0110  -1.6923 C.3            1 <1>                0.0000
      2 N2          -0.5109   2.5462  -1.7879 N.4            1 <1>                0.0000
      3 H3          -1.4688   2.2316  -1.7491 H              1 <1>                0.0000
      4 C4           0.1274   2.0902  -3.0492 C.3            1 <1>                0.0000
      5 C5           0.4924   0.6147  -2.7485 C.3            1 <1>                0.0000
      6 C6           0.9283   0.6617  -1.2661 C.3            1 <1>                0.0000
      7 C7           0.2722   1.9329  -0.6934 C.3            1 <1>                0.0000
      8 N8           0.4428  -0.5239  -0.5555 N.pl3          1 <1>                0.0000
      9 C9           1.3910  -1.4094   0.1250 C.3            1 <1>                0.0000
     10 C10          1.4657  -1.0395   1.5839 C.ar           1 <1>                0.0000
     11 C11          0.7605   0.0513   2.0575 C.ar           1 <1>                0.0000
     12 C12          0.8289   0.3906   3.3955 C.ar           1 <1>                0.0000
     13 C13          1.6023  -0.3611   4.2606 C.ar           1 <1>                0.0000
     14 C14          2.3066  -1.4521   3.7874 C.ar           1 <1>                0.0000
     15 C15          2.2347  -1.7941   2.4497 C.ar           1 <1>                0.0000
     16 C16          3.0026  -2.9837   1.9338 C.3            1 <1>                0.0000
     17 F17          3.6283  -3.6341   3.0027 F              1 <1>                0.0000
     18 F18          2.1225  -3.8678   1.3005 F              1 <1>                0.0000
     19 F19          3.9698  -2.5534   1.0191 F              1 <1>                0.0000
     20 C20         -0.9192  -0.8089  -0.5268 C.ar           1 <1>                0.0000
     21 C21         -1.3944  -1.8492   0.2673 C.ar           1 <1>                0.0000
     22 C22         -2.7402  -2.1345   0.2986 C.ar           1 <1>                0.0000
     23 C23         -3.6320  -1.3779  -0.4680 C.ar           1 <1>                0.0000
     24 C24         -5.0332  -1.6717  -0.4374 C.1            1 <1>                0.0000
     25 N25         -6.1447  -1.9047  -0.4132 N.1            1 <1>                0.0000
     26 C26         -3.1517  -0.3327  -1.2648 C.ar           1 <1>                0.0000
     27 Cl27        -4.2536   0.6103  -2.2188 Cl             1 <1>                0.0000
     28 C28         -1.8029  -0.0500  -1.2871 C.ar           1 <1>                0.0000
     29 H29          0.5840   4.3388  -1.7497 H              1 <1>                0.0000
     30 H30         -1.0199   4.4510  -2.5134 H              1 <1>                0.0000
     31 H31         -0.8838   4.3301  -0.7428 H              1 <1>                0.0000
     32 H32         -0.5757   2.1509  -3.8800 H              1 <1>                0.0000
     33 H33          1.0241   2.6732  -3.2593 H              1 <1>                0.0000
     34 H34         -0.3767  -0.0310  -2.8747 H              1 <1>                0.0000
     35 H35          1.3152   0.2841  -3.3823 H              1 <1>                0.0000
     36 H36          2.0138   0.7295  -1.1929 H              1 <1>                0.0000
     37 H37          1.0411   2.6269  -0.3540 H              1 <1>                0.0000
     38 H38         -0.3863   1.6701   0.1346 H              1 <1>                0.0000
     39 H39          1.0567  -2.4424   0.0287 H              1 <1>                0.0000
     40 H40          2.3768  -1.3029  -0.3278 H              1 <1>                0.0000
     41 H41          0.1563   0.6385   1.3817 H              1 <1>                0.0000
     42 H42          0.2786   1.2432   3.7653 H              1 <1>                0.0000
     43 H43          1.6564  -0.0955   5.3061 H              1 <1>                0.0000
     44 H44          2.9110  -2.0391   4.4631 H              1 <1>                0.0000
     45 H45         -0.7055  -2.4334   0.8593 H              1 <1>                0.0000
     46 H46         -3.1073  -2.9422   0.9145 H              1 <1>                0.0000
     47 H47         -1.4308   0.7566  -1.9013 H              1 <1>                0.0000
@<TRIPOS>BOND
    1    1    2 1     
    2    1   29 1     
    3    1   30 1     
    4    1   31 1     
    5    2    3 1     
    6    2    7 1     
    7    2    4 1     
    8    4    5 1     
    9    4   32 1     
   10    4   33 1     
   11    5    6 1     
   12    5   34 1     
   13    5   35 1     
   14    6    7 1     
   15    6    8 1     
   16    6   36 1     
   17    7   37 1     
   18    7   38 1     
   19    8    9 1     
   20    8   20 1     
   21    9   10 1     
   22    9   39 1     
   23    9   40 1     
   24   10   15 ar    
   25   10   11 ar    
   26   11   12 ar    
   27   11   41 1     
   28   12   13 ar    
   29   12   42 1     
   30   13   14 ar    
   31   13   43 1     
   32   14   15 ar    
   33   14   44 1     
   34   15   16 1     
   35   16   17 1     
   36   16   18 1     
   37   16   19 1     
   38   20   28 ar    
   39   20   21 ar    
   40   21   22 ar    
   41   21   45 1     
   42   22   23 ar    
   43   22   46 1     
   44   23   24 1     
   45   23   26 ar    
   46   24   25 3     
   47   26   27 1     
   48   26   28 ar    
   49   28   47 1     
@<TRIPOS>SUBSTRUCTURE
      1 ****           1
@<TRIPOS>SET
DONOR_HYDROGENS      STATIC     ATOMS    <user>   **** ""
1 3
ATOM$RED        STATIC     ATOMS    COLORGROUP SYSTEM
1 3
