#       Name:                GLH
#       Creating user name   gbret
#       Creation time:       Fri Sep  9 08:44:11 2016


#       File generated by GOLD software.
#

@<TRIPOS>MOLECULE
GLH
    56    57     1
SMALL
NO_CHARGES


@<TRIPOS>ATOM
      1 N1          -2.0775  -5.3048  -1.5210 N.4            1 <1>                0.0000
      2 H2          -1.9586  -6.3068  -1.5307 H              1 <1>                0.0000
      3 H3          -1.1727  -4.8586  -1.5372 H              1 <1>                0.0000
      4 H4          -2.6070  -5.0211  -2.3316 H              1 <1>                0.0000
      5 C5          -2.7970  -4.9089  -0.3030 C.3            1 <1>                0.0000
      6 C6          -2.9773  -3.3896  -0.2883 C.3            1 <1>                0.0000
      7 C7          -1.6080  -2.7145  -0.1870 C.3            1 <1>                0.0000
      8 C8          -1.7855  -1.2181  -0.1726 C.2            1 <1>                0.0000
      9 O9          -2.8973  -0.7389  -0.2369 O.2            1 <1>                0.0000
     10 N10         -0.7084  -0.4125  -0.0881 N.am           1 <1>                0.0000
     11 C11          0.6351  -0.9915  -0.0104 C.3            1 <1>                0.0000
     12 C12          1.4244  -0.6192  -1.2672 C.3            1 <1>                0.0000
     13 C13          2.8275  -1.2239  -1.1860 C.3            1 <1>                0.0000
     14 C14          3.5474  -0.6781   0.0487 C.3            1 <1>                0.0000
     15 C15          2.7582  -1.0504   1.3054 C.3            1 <1>                0.0000
     16 C16          1.3551  -0.4457   1.2243 C.3            1 <1>                0.0000
     17 C17         -0.8671   0.9258  -0.0752 C.2            1 <1>                0.0000
     18 O18         -1.9838   1.4051  -0.0516 O.2            1 <1>                0.0000
     19 N19          0.2124   1.7327  -0.0884 N.am           1 <1>                0.0000
     20 C20          0.0445   3.1829   0.0345 C.3            1 <1>                0.0000
     21 C21         -0.0392   3.5631   1.5141 C.3            1 <1>                0.0000
     22 C22         -0.2144   5.0776   1.6424 C.3            1 <1>                0.0000
     23 C23          0.9806   5.7854   1.0007 C.3            1 <1>                0.0000
     24 C24          1.0642   5.4052  -0.4790 C.3            1 <1>                0.0000
     25 C25          1.2395   3.8907  -0.6072 C.3            1 <1>                0.0000
     26 C26         -4.1484  -5.5753  -0.2788 C.2            1 <1>                0.0000
     27 O27         -4.4813  -6.3119  -1.1916 O.co2          1 <1>                0.0000
     28 O28         -4.9089  -5.3779   0.6536 O.co2          1 <1>                0.0000
     29 H29         -2.2250  -5.2154   0.5728 H              1 <1>                0.0000
     30 H30         -3.4712  -3.0734  -1.2071 H              1 <1>                0.0000
     31 H31         -3.5872  -3.1044   0.5688 H              1 <1>                0.0000
     32 H32         -1.1141  -3.0307   0.7317 H              1 <1>                0.0000
     33 H33         -0.9980  -2.9998  -1.0442 H              1 <1>                0.0000
     34 H34          0.5595  -2.0764   0.0630 H              1 <1>                0.0000
     35 H35          0.9114  -1.0081  -2.1468 H              1 <1>                0.0000
     36 H36          1.5000   0.4657  -1.3407 H              1 <1>                0.0000
     37 H37          2.7518  -2.3088  -1.1126 H              1 <1>                0.0000
     38 H38          3.3897  -0.9587  -2.0814 H              1 <1>                0.0000
     39 H39          4.5470  -1.1089   0.1065 H              1 <1>                0.0000
     40 H40          3.6231   0.4068  -0.0248 H              1 <1>                0.0000
     41 H41          2.6825  -2.1353   1.3789 H              1 <1>                0.0000
     42 H42          3.2711  -0.6615   2.1851 H              1 <1>                0.0000
     43 H43          1.4307   0.6392   1.1508 H              1 <1>                0.0000
     44 H44          0.7928  -0.7109   2.1196 H              1 <1>                0.0000
     45 H45          1.1004   1.3532  -0.1792 H              1 <1>                0.0000
     46 H46         -0.8721   3.4866  -0.4711 H              1 <1>                0.0000
     47 H47         -0.8905   3.0587   1.9712 H              1 <1>                0.0000
     48 H48          0.8775   3.2593   2.0197 H              1 <1>                0.0000
     49 H49         -1.1311   5.3813   1.1368 H              1 <1>                0.0000
     50 H50         -0.2740   5.3484   2.6965 H              1 <1>                0.0000
     51 H51          0.8557   6.8644   1.0921 H              1 <1>                0.0000
     52 H52          1.8972   5.4817   1.5063 H              1 <1>                0.0000
     53 H53          0.1476   5.7090  -0.9845 H              1 <1>                0.0000
     54 H54          1.9156   5.9095  -0.9361 H              1 <1>                0.0000
     55 H55          2.1561   3.5870  -0.1017 H              1 <1>                0.0000
     56 H56          1.2991   3.6199  -1.6614 H              1 <1>                0.0000
@<TRIPOS>BOND
    1    1    2 1     
    2    1    3 1     
    3    1    4 1     
    4    1    5 1     
    5    5    6 1     
    6    5   26 1     
    7    5   29 1     
    8    6    7 1     
    9    6   30 1     
   10    6   31 1     
   11    7    8 1     
   12    7   32 1     
   13    7   33 1     
   14    8    9 2     
   15    8   10 am    
   16   10   11 1     
   17   10   17 am    
   18   11   16 1     
   19   11   12 1     
   20   11   34 1     
   21   12   13 1     
   22   12   35 1     
   23   12   36 1     
   24   13   14 1     
   25   13   37 1     
   26   13   38 1     
   27   14   15 1     
   28   14   39 1     
   29   14   40 1     
   30   15   16 1     
   31   15   41 1     
   32   15   42 1     
   33   16   43 1     
   34   16   44 1     
   35   17   18 2     
   36   17   19 am    
   37   19   20 1     
   38   19   45 1     
   39   20   25 1     
   40   20   21 1     
   41   20   46 1     
   42   21   22 1     
   43   21   47 1     
   44   21   48 1     
   45   22   23 1     
   46   22   49 1     
   47   22   50 1     
   48   23   24 1     
   49   23   51 1     
   50   23   52 1     
   51   24   25 1     
   52   24   53 1     
   53   24   54 1     
   54   25   55 1     
   55   25   56 1     
   56   26   27 ar    
   57   26   28 ar    
@<TRIPOS>SUBSTRUCTURE
      1 ****           1
@<TRIPOS>SET
DONOR_HYDROGENS      STATIC     ATOMS    <user>   **** ""
4 2 3 4 45
ATOM$RED        STATIC     ATOMS    COLORGROUP SYSTEM
4 2 3 4 45
