#       Name:                GLV
#       Creating user name   gbret
#       Creation time:       Fri Sep  9 08:45:06 2016


#       File generated by GOLD software.
#

@<TRIPOS>MOLECULE
GLV
     6     5     1
SMALL
NO_CHARGES


@<TRIPOS>ATOM
      1 O1           0.6662  -1.5626  -0.0108 O.co2          1 <1>                0.0000
      2 C2           0.6496  -0.3423  -0.0041 C.2            1 <1>                0.0000
      3 O3           1.6981   0.2823  -0.0107 O.co2          1 <1>                0.0000
      4 C4          -0.6538   0.3869   0.0061 C.2            1 <1>                0.0000
      5 O5          -1.6914  -0.2312   0.0076 O.2            1 <1>                0.0000
      6 H6          -0.6685   1.4667   0.0120 H              1 <1>                0.0000
@<TRIPOS>BOND
    1    1    2 ar    
    2    2    3 ar    
    3    2    4 1     
    4    4    5 2     
    5    4    6 1     
@<TRIPOS>SUBSTRUCTURE
      1 ****           1
