#       Name:                GOB
#       Creating user name   gbret
#       Creation time:       Fri Sep  9 08:48:41 2016


#       File generated by GOLD software.
#

@<TRIPOS>MOLECULE
GOB
    59    61     1
SMALL
NO_CHARGES


@<TRIPOS>ATOM
      1 C1          -0.8621   3.3619   3.7491 C.3            1 <1>                0.0000
      2 O2          -0.9642   1.9407   3.6412 O.3            1 <1>                0.0000
      3 C3          -0.3161   1.3525   2.6007 C.ar           1 <1>                0.0000
      4 C4           0.4065   2.1258   1.7071 C.ar           1 <1>                0.0000
      5 C5           1.0672   1.5239   0.6468 C.ar           1 <1>                0.0000
      6 O6           1.7769   2.2829  -0.2300 O.3            1 <1>                0.0000
      7 C7           1.7986   3.6928   0.0020 C.3            1 <1>                0.0000
      8 C8           1.0051   0.1480   0.4801 C.ar           1 <1>                0.0000
      9 C9           0.2850  -0.6261   1.3696 C.ar           1 <1>                0.0000
     10 C10         -0.3731  -0.0293   2.4348 C.ar           1 <1>                0.0000
     11 N11         -1.1042  -0.8155   3.3381 N.am           1 <1>                0.0000
     12 C12         -0.7088  -2.0753   3.6083 C.2            1 <1>                0.0000
     13 O13          0.3240  -2.5014   3.1358 O.2            1 <1>                0.0000
     14 C14         -1.5497  -2.9546   4.4976 C.3            1 <1>                0.0000
     15 C15         -0.8809  -4.3231   4.6411 C.3            1 <1>                0.0000
     16 C16         -1.7219  -5.2024   5.5303 C.2            1 <1>                0.0000
     17 O17         -2.7599  -4.7742   6.0052 O.co2          1 <1>                0.0000
     18 O18         -1.3642  -6.3421   5.7748 O.co2          1 <1>                0.0000
     19 S19          1.8452  -0.6133  -0.8687 S.o2           1 <1>                0.0000
     20 O20          3.1684  -0.0952  -0.8611 O.2            1 <1>                0.0000
     21 O21          1.5539  -2.0019  -0.7905 O.2            1 <1>                0.0000
     22 N22          1.1360  -0.0643  -2.2608 N.pl3          1 <1>                0.0000
     23 C23          1.8514   0.7626  -3.1300 C.ar           1 <1>                0.0000
     24 C24          2.8641   1.5779  -2.6398 C.ar           1 <1>                0.0000
     25 C25          3.5693   2.3942  -3.5020 C.ar           1 <1>                0.0000
     26 C26          3.2686   2.4007  -4.8518 C.ar           1 <1>                0.0000
     27 C27          2.2610   1.5908  -5.3431 C.ar           1 <1>                0.0000
     28 C28          1.5559   0.7675  -4.4876 C.ar           1 <1>                0.0000
     29 C29         -0.1807  -0.4290  -2.5665 C.ar           1 <1>                0.0000
     30 C30         -0.7014  -1.6217  -2.0814 C.ar           1 <1>                0.0000
     31 C31         -2.0000  -1.9813  -2.3830 C.ar           1 <1>                0.0000
     32 C32         -2.7852  -1.1507  -3.1718 C.ar           1 <1>                0.0000
     33 N33         -4.1014  -1.5156  -3.4778 N.pl3          1 <1>                0.0000
     34 C34         -2.2647   0.0420  -3.6565 C.ar           1 <1>                0.0000
     35 C35         -0.9681   0.4045  -3.3502 C.ar           1 <1>                0.0000
     36 H36          0.1850   3.6437   3.8594 H              1 <1>                0.0000
     37 H37         -1.2703   3.8248   2.8506 H              1 <1>                0.0000
     38 H38         -1.4233   3.7014   4.6197 H              1 <1>                0.0000
     39 H39          0.4551   3.1970   1.8360 H              1 <1>                0.0000
     40 H40          0.7810   4.0820  -0.0306 H              1 <1>                0.0000
     41 H41          2.2331   3.8932   0.9813 H              1 <1>                0.0000
     42 H42          2.3982   4.1785  -0.7679 H              1 <1>                0.0000
     43 H43          0.2381  -1.6970   1.2379 H              1 <1>                0.0000
     44 H44         -1.8942  -0.4523   3.7680 H              1 <1>                0.0000
     45 H45         -1.6455  -2.4922   5.4800 H              1 <1>                0.0000
     46 H46         -2.5386  -3.0779   4.0561 H              1 <1>                0.0000
     47 H47         -0.7851  -4.7856   3.6587 H              1 <1>                0.0000
     48 H48          0.1080  -4.1998   5.0825 H              1 <1>                0.0000
     49 H49          3.0991   1.5735  -1.5857 H              1 <1>                0.0000
     50 H50          4.3563   3.0285  -3.1216 H              1 <1>                0.0000
     51 H51          3.8218   3.0401  -5.5239 H              1 <1>                0.0000
     52 H52          2.0286   1.5987  -6.3977 H              1 <1>                0.0000
     53 H53          0.7691   0.1352  -4.8718 H              1 <1>                0.0000
     54 H54         -0.0906  -2.2680  -1.4686 H              1 <1>                0.0000
     55 H55         -2.4049  -2.9088  -2.0058 H              1 <1>                0.0000
     56 H56         -4.4651  -2.3486  -3.1390 H              1 <1>                0.0000
     57 H57         -4.6498  -0.9355  -4.0289 H              1 <1>                0.0000
     58 H58         -2.8755   0.6881  -4.2696 H              1 <1>                0.0000
     59 H59         -0.5633   1.3321  -3.7271 H              1 <1>                0.0000
@<TRIPOS>BOND
    1    1    2 1     
    2    1   36 1     
    3    1   37 1     
    4    1   38 1     
    5    2    3 1     
    6    3   10 ar    
    7    3    4 ar    
    8    4    5 ar    
    9    4   39 1     
   10    5    6 1     
   11    5    8 ar    
   12    6    7 1     
   13    7   40 1     
   14    7   41 1     
   15    7   42 1     
   16    8    9 ar    
   17    8   19 1     
   18    9   10 ar    
   19    9   43 1     
   20   10   11 1     
   21   11   12 am    
   22   11   44 1     
   23   12   13 2     
   24   12   14 1     
   25   14   15 1     
   26   14   45 1     
   27   14   46 1     
   28   15   16 1     
   29   15   47 1     
   30   15   48 1     
   31   16   17 ar    
   32   16   18 ar    
   33   19   20 2     
   34   19   21 2     
   35   19   22 1     
   36   22   23 1     
   37   22   29 1     
   38   23   28 ar    
   39   23   24 ar    
   40   24   25 ar    
   41   24   49 1     
   42   25   26 ar    
   43   25   50 1     
   44   26   27 ar    
   45   26   51 1     
   46   27   28 ar    
   47   27   52 1     
   48   28   53 1     
   49   29   35 ar    
   50   29   30 ar    
   51   30   31 ar    
   52   30   54 1     
   53   31   32 ar    
   54   31   55 1     
   55   32   33 1     
   56   32   34 ar    
   57   33   56 1     
   58   33   57 1     
   59   34   35 ar    
   60   34   58 1     
   61   35   59 1     
@<TRIPOS>SUBSTRUCTURE
      1 ****           1
@<TRIPOS>SET
DONOR_HYDROGENS      STATIC     ATOMS    <user>   **** ""
3 44 56 57
ATOM$RED        STATIC     ATOMS    COLORGROUP SYSTEM
3 44 56 57
