#       Name:                GY3
#       Creating user name   gbret
#       Creation time:       Fri Sep  9 09:02:26 2016


#       File generated by GOLD software.
#

@<TRIPOS>MOLECULE
GY3
    44    46     1
SMALL
NO_CHARGES


@<TRIPOS>ATOM
      1 C1          -2.8290   1.0077   0.2248 C.3            1 <1>                0.0000
      2 C2          -2.5017  -0.4749   0.4134 C.3            1 <1>                0.0000
      3 C3          -1.7871  -0.9910  -0.8088 C.ar           1 <1>                0.0000
      4 C4          -2.4997  -1.6114  -1.8141 C.ar           1 <1>                0.0000
      5 C5          -1.8522  -2.0898  -2.9415 C.ar           1 <1>                0.0000
      6 C6          -2.6458  -2.7649  -4.0302 C.3            1 <1>                0.0000
      7 C7          -0.4855  -1.9520  -3.0746 C.ar           1 <1>                0.0000
      8 C8           0.2531  -1.3279  -2.0706 C.ar           1 <1>                0.0000
      9 C9           1.7145  -1.1775  -2.2080 C.2            1 <1>                0.0000
     10 C10          2.2915  -1.3526  -3.3906 C.2            1 <1>                0.0000
     11 C11         -0.4059  -0.8366  -0.9265 C.ar           1 <1>                0.0000
     12 C12          0.3617  -0.1731   0.1458 C.ar           1 <1>                0.0000
     13 C13          0.3934  -0.5458   1.5057 C.2            1 <1>                0.0000
     14 O14         -0.2100  -1.4775   2.0106 O.2            1 <1>                0.0000
     15 N15          1.2040   0.3055   2.1413 N.am           1 <1>                0.0000
     16 C16          1.5734   0.3469   3.5665 C.3            1 <1>                0.0000
     17 C17          1.0064   1.6478   4.1512 C.3            1 <1>                0.0000
     18 O18          1.8329   2.7481   3.8426 O.3            1 <1>                0.0000
     19 C19          1.8763   3.2616   2.5298 C.3            1 <1>                0.0000
     20 C20          2.6344   2.3151   1.5889 C.3            1 <1>                0.0000
     21 N21          1.7065   1.2378   1.2047 N.am           1 <1>                0.0000
     22 C22          1.2051   0.9480   0.0004 C.2            1 <1>                0.0000
     23 O23          1.4337   1.5465  -1.0371 O.2            1 <1>                0.0000
     24 H24         -1.9054   1.5682   0.0802 H              1 <1>                0.0000
     25 H25         -3.4689   1.1303  -0.6490 H              1 <1>                0.0000
     26 H26         -3.3459   1.3811   1.1089 H              1 <1>                0.0000
     27 H27         -1.8618  -0.5974   1.2873 H              1 <1>                0.0000
     28 H28         -3.4254  -1.0353   0.5581 H              1 <1>                0.0000
     29 H29         -3.5697  -1.7251  -1.7214 H              1 <1>                0.0000
     30 H30         -2.9734  -2.0205  -4.7560 H              1 <1>                0.0000
     31 H31         -2.0217  -3.5072  -4.5277 H              1 <1>                0.0000
     32 H32         -3.5164  -3.2552  -3.5946 H              1 <1>                0.0000
     33 H33          0.0118  -2.3280  -3.9565 H              1 <1>                0.0000
     34 H34          2.3147  -0.9249  -1.3464 H              1 <1>                0.0000
     35 H35          3.3611  -1.2425  -3.4912 H              1 <1>                0.0000
     36 H36          1.6912  -1.6051  -4.2522 H              1 <1>                0.0000
     37 H37          1.1442  -0.5103   4.0853 H              1 <1>                0.0000
     38 H38          2.6586   0.3371   3.6682 H              1 <1>                0.0000
     39 H39          0.0122   1.8212   3.7393 H              1 <1>                0.0000
     40 H40          0.9314   1.5499   5.2342 H              1 <1>                0.0000
     41 H41          0.8581   3.3905   2.1627 H              1 <1>                0.0000
     42 H42          2.3762   4.2301   2.5413 H              1 <1>                0.0000
     43 H43          2.9599   2.8576   0.7013 H              1 <1>                0.0000
     44 H44          3.4978   1.8941   2.1041 H              1 <1>                0.0000
@<TRIPOS>BOND
    1    1    2 1     
    2    1   24 1     
    3    1   25 1     
    4    1   26 1     
    5    2    3 1     
    6    2   27 1     
    7    2   28 1     
    8    3   11 ar    
    9    3    4 ar    
   10    4    5 ar    
   11    4   29 1     
   12    5    6 1     
   13    5    7 ar    
   14    6   30 1     
   15    6   31 1     
   16    6   32 1     
   17    7    8 ar    
   18    7   33 1     
   19    8    9 1     
   20    8   11 ar    
   21    9   10 2     
   22    9   34 1     
   23   10   35 1     
   24   10   36 1     
   25   11   12 1     
   26   12   22 1     
   27   12   13 1     
   28   13   14 2     
   29   13   15 am    
   30   15   21 1     
   31   15   16 1     
   32   16   17 1     
   33   16   37 1     
   34   16   38 1     
   35   17   18 1     
   36   17   39 1     
   37   17   40 1     
   38   18   19 1     
   39   19   20 1     
   40   19   41 1     
   41   19   42 1     
   42   20   21 1     
   43   20   43 1     
   44   20   44 1     
   45   21   22 am    
   46   22   23 2     
@<TRIPOS>SUBSTRUCTURE
      1 ****           1
