#       Name:                GZA
#       Creating user name   gbret
#       Creation time:       Fri Sep  9 09:03:17 2016


#       File generated by GOLD software.
#

@<TRIPOS>MOLECULE
GZA
    37    40     1
SMALL
NO_CHARGES


@<TRIPOS>ATOM
      1 O1           1.1882  -5.9741  -0.9454 O.2            1 <1>                0.0000
      2 C2           1.1730  -4.7572  -0.9439 C.2            1 <1>                0.0000
      3 N3           0.0074  -4.0672  -0.9401 N.am           1 <1>                0.0000
      4 H4          -0.8356  -4.5470  -0.9385 H              1 <1>                0.0000
      5 C5           0.0095  -2.7041  -0.9380 C.2            1 <1>                0.0000
      6 O6          -1.1773  -2.0613  -0.9338 O.3            1 <1>                0.0000
      7 C7          -1.1689  -0.7040  -0.8215 C.2            1 <1>                0.0000
      8 C8          -0.0333   0.1173  -0.8283 C.2            1 <1>                0.0000
      9 N9          -0.4229   1.3598  -0.6992 N.2            1 <1>                0.0000
     10 N10         -1.8204   1.3758  -0.6054 N.pl3          1 <1>                0.0000
     11 C11         -2.6609   2.5657  -0.4508 C.3            1 <1>                0.0000
     12 C12         -2.2076   3.3478   0.7550 C.ar           1 <1>                0.0000
     13 C13         -2.7513   3.0794   1.9973 C.ar           1 <1>                0.0000
     14 C14         -2.3354   3.7968   3.1033 C.ar           1 <1>                0.0000
     15 C15         -1.3756   4.7822   2.9671 C.ar           1 <1>                0.0000
     16 C16         -0.8313   5.0499   1.7250 C.ar           1 <1>                0.0000
     17 C17         -1.2440   4.3296   0.6197 C.ar           1 <1>                0.0000
     18 C18         -2.2583   0.0929  -0.6890 C.2            1 <1>                0.0000
     19 N19          1.1039  -1.9879  -0.9394 N.2            1 <1>                0.0000
     20 C20          2.3262  -2.5669  -0.9436 C.ar           1 <1>                0.0000
     21 C21          3.5093  -1.8207  -0.9457 C.ar           1 <1>                0.0000
     22 N22          4.6736  -2.4319  -0.9502 N.ar           1 <1>                0.0000
     23 C23          4.7903  -3.7485  -0.9529 C.ar           1 <1>                0.0000
     24 C24          3.6806  -4.5689  -0.9517 C.ar           1 <1>                0.0000
     25 C25          2.4181  -3.9775  -0.9398 C.ar           1 <1>                0.0000
     26 H26          0.9889  -0.2180  -0.9235 H              1 <1>                0.0000
     27 H27         -2.5758   3.1888  -1.3411 H              1 <1>                0.0000
     28 H28         -3.6994   2.2623  -0.3177 H              1 <1>                0.0000
     29 H29         -3.5012   2.3095   2.1036 H              1 <1>                0.0000
     30 H30         -2.7607   3.5876   4.0738 H              1 <1>                0.0000
     31 H31         -1.0512   5.3431   3.8312 H              1 <1>                0.0000
     32 H32         -0.0816   5.8200   1.6186 H              1 <1>                0.0000
     33 H33         -0.8187   4.5388  -0.3508 H              1 <1>                0.0000
     34 H34         -3.2869  -0.2339  -0.6502 H              1 <1>                0.0000
     35 H35          3.4665  -0.7415  -0.9439 H              1 <1>                0.0000
     36 H36          5.7751  -4.1918  -0.9566 H              1 <1>                0.0000
     37 H37          3.7876  -5.6435  -0.9547 H              1 <1>                0.0000
@<TRIPOS>BOND
    1    1    2 2     
    2    2   25 1     
    3    2    3 am    
    4    3    4 1     
    5    3    5 1     
    6    5    6 1     
    7    5   19 2     
    8    6    7 1     
    9    7   18 2     
   10    7    8 1     
   11    8    9 2     
   12    8   26 1     
   13    9   10 1     
   14   10   11 1     
   15   10   18 1     
   16   11   12 1     
   17   11   27 1     
   18   11   28 1     
   19   12   17 ar    
   20   12   13 ar    
   21   13   14 ar    
   22   13   29 1     
   23   14   15 ar    
   24   14   30 1     
   25   15   16 ar    
   26   15   31 1     
   27   16   17 ar    
   28   16   32 1     
   29   17   33 1     
   30   18   34 1     
   31   19   20 1     
   32   20   25 ar    
   33   20   21 ar    
   34   21   22 ar    
   35   21   35 1     
   36   22   23 ar    
   37   23   24 ar    
   38   23   36 1     
   39   24   25 ar    
   40   24   37 1     
@<TRIPOS>SUBSTRUCTURE
      1 ****           1
@<TRIPOS>SET
DONOR_HYDROGENS      STATIC     ATOMS    <user>   **** ""
1 4
ATOM$RED        STATIC     ATOMS    COLORGROUP SYSTEM
1 4
