#       Name:                H2A
#       Creating user name   gbret
#       Creation time:       Fri Sep  9 09:05:59 2016


#       File generated by GOLD software.
#

@<TRIPOS>MOLECULE
H2A
    60    61     1
SMALL
NO_CHARGES


@<TRIPOS>ATOM
      1 C1          -3.3174   3.9415  -2.2719 C.3            1 <1>                0.0000
      2 C2          -3.2969   2.4346  -2.2802 C.2            1 <1>                0.0000
      3 O3          -3.2787   1.8249  -1.2372 O.2            1 <1>                0.0000
      4 O4          -3.2989   1.7698  -3.4463 O.3            1 <1>                0.0000
      5 C5          -3.2785   0.3195  -3.3782 C.3            1 <1>                0.0000
      6 C6          -3.2841  -0.2576  -4.7952 C.3            1 <1>                0.0000
      7 C7          -2.0128   0.1816  -5.5169 C.3            1 <1>                0.0000
      8 S8          -0.5469  -0.2355  -4.5202 S.3            1 <1>                0.0000
      9 C9          -0.7656  -2.0358  -4.3271 C.3            1 <1>                0.0000
     10 C10         -0.3875  -2.5822  -2.9593 C.3            1 <1>                0.0000
     11 N11          0.0217  -1.5601  -1.9929 N.am           1 <1>                0.0000
     12 C12          0.8330  -1.8882  -0.9679 C.2            1 <1>                0.0000
     13 O13          1.2244  -3.0296  -0.8456 O.2            1 <1>                0.0000
     14 C14          1.2539  -0.8367   0.0263 C.3            1 <1>                0.0000
     15 C15          2.1665  -1.4674   1.0800 C.3            1 <1>                0.0000
     16 C16          2.5938  -0.4000   2.0894 C.3            1 <1>                0.0000
     17 C17          3.5064  -1.0307   3.1431 C.3            1 <1>                0.0000
     18 C18          3.9337   0.0368   4.1525 C.3            1 <1>                0.0000
     19 N19          2.7594   0.5097   4.8897 N.am           1 <1>                0.0000
     20 C20          2.7601   1.7396   5.4411 C.2            1 <1>                0.0000
     21 O21          3.7329   2.4547   5.3268 O.2            1 <1>                0.0000
     22 C22          1.5521   2.2260   6.1995 C.3            1 <1>                0.0000
     23 N23          1.8015   3.5853   6.6977 N.4            1 <1>                0.0000
     24 H24          2.6027   3.5771   7.3109 H              1 <1>                0.0000
     25 H25          1.9802   4.2014   5.9189 H              1 <1>                0.0000
     26 H26          0.9927   3.9110   7.2055 H              1 <1>                0.0000
     27 C27          4.9285  -0.5543   5.1179 C.2            1 <1>                0.0000
     28 O28          6.1212  -0.5061   4.8700 O.co2          1 <1>                0.0000
     29 O29          4.5405  -1.0807   6.1469 O.co2          1 <1>                0.0000
     30 C30         -1.8543  -2.9352  -2.9080 C.2            1 <1>                0.0000
     31 O31         -2.5024  -3.5946  -2.1231 O.2            1 <1>                0.0000
     32 N32         -2.1966  -2.2794  -4.0136 N.am           1 <1>                0.0000
     33 C33         -3.3888  -1.7849  -4.7129 C.3            1 <1>                0.0000
     34 C34         -4.6272  -2.1708  -3.9458 C.2            1 <1>                0.0000
     35 O35         -4.5285  -2.6383  -2.8240 O.co2          1 <1>                0.0000
     36 O36         -5.7278  -2.0157  -4.4468 O.co2          1 <1>                0.0000
     37 H37         -2.2948   4.3188  -2.2796 H              1 <1>                0.0000
     38 H38         -3.8445   4.3026  -3.1550 H              1 <1>                0.0000
     39 H39         -3.8276   4.2930  -1.3751 H              1 <1>                0.0000
     40 H40         -2.3790  -0.0071  -2.8564 H              1 <1>                0.0000
     41 H41         -4.1588  -0.0313  -2.8396 H              1 <1>                0.0000
     42 H42         -4.1492   0.1297  -5.3334 H              1 <1>                0.0000
     43 H43         -1.9508  -0.3253  -6.4799 H              1 <1>                0.0000
     44 H44         -2.0440   1.2589  -5.6799 H              1 <1>                0.0000
     45 H45         -0.3842  -2.6118  -5.1702 H              1 <1>                0.0000
     46 H46          0.2814  -3.4424  -2.9884 H              1 <1>                0.0000
     47 H47         -0.2913  -0.6472  -2.0906 H              1 <1>                0.0000
     48 H48          1.7914  -0.0420  -0.4910 H              1 <1>                0.0000
     49 H49          0.3708  -0.4217   0.5120 H              1 <1>                0.0000
     50 H50          1.6290  -2.2622   1.5973 H              1 <1>                0.0000
     51 H51          3.0496  -1.8825   0.5943 H              1 <1>                0.0000
     52 H52          3.1313   0.3948   1.5720 H              1 <1>                0.0000
     53 H53          1.7107   0.0151   2.5750 H              1 <1>                0.0000
     54 H54          2.9689  -1.8254   3.6604 H              1 <1>                0.0000
     55 H55          4.3895  -1.4457   2.6574 H              1 <1>                0.0000
     56 H56          4.3924   0.8730   3.6247 H              1 <1>                0.0000
     57 H57          1.9813  -0.0623   4.9811 H              1 <1>                0.0000
     58 H58          0.6866   2.2349   5.5371 H              1 <1>                0.0000
     59 H59          1.3590   1.5604   7.0408 H              1 <1>                0.0000
     60 H60         -3.4294  -2.2067  -5.7171 H              1 <1>                0.0000
@<TRIPOS>BOND
    1    1    2 1     
    2    1   37 1     
    3    1   38 1     
    4    1   39 1     
    5    2    3 2     
    6    2    4 1     
    7    4    5 1     
    8    5    6 1     
    9    5   40 1     
   10    5   41 1     
   11    6   33 1     
   12    6    7 1     
   13    6   42 1     
   14    7    8 1     
   15    7   43 1     
   16    7   44 1     
   17    8    9 1     
   18    9   32 1     
   19    9   10 1     
   20    9   45 1     
   21   10   11 1     
   22   10   30 1     
   23   10   46 1     
   24   11   12 am    
   25   11   47 1     
   26   12   13 2     
   27   12   14 1     
   28   14   15 1     
   29   14   48 1     
   30   14   49 1     
   31   15   16 1     
   32   15   50 1     
   33   15   51 1     
   34   16   17 1     
   35   16   52 1     
   36   16   53 1     
   37   17   18 1     
   38   17   54 1     
   39   17   55 1     
   40   18   19 1     
   41   18   27 1     
   42   18   56 1     
   43   19   20 am    
   44   19   57 1     
   45   20   21 2     
   46   20   22 1     
   47   22   23 1     
   48   22   58 1     
   49   22   59 1     
   50   23   24 1     
   51   23   25 1     
   52   23   26 1     
   53   27   28 ar    
   54   27   29 ar    
   55   30   31 2     
   56   30   32 am    
   57   32   33 1     
   58   33   34 1     
   59   33   60 1     
   60   34   35 ar    
   61   34   36 ar    
@<TRIPOS>SUBSTRUCTURE
      1 ****           1
@<TRIPOS>SET
DONOR_HYDROGENS      STATIC     ATOMS    <user>   **** ""
5 47 57 24 25 26
ATOM$RED        STATIC     ATOMS    COLORGROUP SYSTEM
5 47 57 24 25 26
