#       Name:                H35
#       Creating user name   gbret
#       Creation time:       Fri Sep  9 09:06:36 2016


#       File generated by GOLD software.
#

@<TRIPOS>MOLECULE
H35
    25    27     1
SMALL
NO_CHARGES


@<TRIPOS>ATOM
      1 C1          -0.0526   1.6063   0.0832 C.3            1 <1>                0.0000
      2 N2          -0.0327   0.1414   0.0751 N.pl3          1 <1>                0.0000
      3 C3          -1.2231  -0.5676   0.0827 C.ar           1 <1>                0.0000
      4 N4          -2.3927   0.0668   0.0917 N.ar           1 <1>                0.0000
      5 C5          -3.5314  -0.6018   0.0990 C.ar           1 <1>                0.0000
      6 N6          -3.5798  -1.9156   0.0978 N.ar           1 <1>                0.0000
      7 C7          -2.4548  -2.6374   0.0890 C.ar           1 <1>                0.0000
      8 N8          -2.1789  -3.9551   0.0855 N.2            1 <1>                0.0000
      9 C9          -0.8875  -4.1357   0.0761 C.2            1 <1>                0.0000
     10 N10         -0.2513  -2.9426   0.0730 N.pl3          1 <1>                0.0000
     11 H11          0.7084  -2.8019   0.0661 H              1 <1>                0.0000
     12 C12         -1.2223  -1.9635   0.0752 C.ar           1 <1>                0.0000
     13 C13          1.3612   2.1279   0.0725 C.2            1 <1>                0.0000
     14 C14          2.0869   2.4111  -1.0241 C.2            1 <1>                0.0000
     15 C15          3.3466   2.8693  -0.5746 C.2            1 <1>                0.0000
     16 C16          3.3153   2.8388   0.7699 C.2            1 <1>                0.0000
     17 O17          2.1083   2.3943   1.1563 O.3            1 <1>                0.0000
     18 H18         -0.5798   1.9674  -0.7999 H              1 <1>                0.0000
     19 H19         -0.5628   1.9578   0.9800 H              1 <1>                0.0000
     20 H20          0.8138  -0.3321   0.0645 H              1 <1>                0.0000
     21 H21         -4.4586  -0.0481   0.1066 H              1 <1>                0.0000
     22 H22         -0.3974  -5.0981   0.0715 H              1 <1>                0.0000
     23 H23          1.7686   2.3076  -2.0510 H              1 <1>                0.0000
     24 H24          4.1752   3.1833  -1.1921 H              1 <1>                0.0000
     25 H25          4.1225   3.1266   1.4271 H              1 <1>                0.0000
@<TRIPOS>BOND
    1    1    2 1     
    2    1   13 1     
    3    1   18 1     
    4    1   19 1     
    5    2    3 1     
    6    2   20 1     
    7    3   12 ar    
    8    3    4 ar    
    9    4    5 ar    
   10    5    6 ar    
   11    5   21 1     
   12    6    7 ar    
   13    7   12 ar    
   14    7    8 1     
   15    8    9 2     
   16    9   10 1     
   17    9   22 1     
   18   10   11 1     
   19   10   12 1     
   20   13   17 1     
   21   13   14 2     
   22   14   15 1     
   23   14   23 1     
   24   15   16 2     
   25   15   24 1     
   26   16   17 1     
   27   16   25 1     
@<TRIPOS>SUBSTRUCTURE
      1 ****           1
@<TRIPOS>SET
DONOR_HYDROGENS      STATIC     ATOMS    <user>   **** ""
2 20 11
ATOM$RED        STATIC     ATOMS    COLORGROUP SYSTEM
2 20 11
