#       Name:                H4K
#       Creating user name   gbret
#       Creation time:       Fri Sep  9 09:07:42 2016


#       File generated by GOLD software.
#

@<TRIPOS>MOLECULE
H4K
    32    34     1
SMALL
NO_CHARGES


@<TRIPOS>ATOM
      1 O1           0.0677   1.4302   0.2503 O.2            1 <1>                0.0000
      2 C2           1.1295   0.8382   0.2447 C.2            1 <1>                0.0000
      3 N3           2.2865   1.5296   0.2472 N.am           1 <1>                0.0000
      4 C4           2.2679   2.9161   0.1492 C.ar           1 <1>                0.0000
      5 C5           3.4668   3.6241   0.0448 C.ar           1 <1>                0.0000
      6 N6           3.4509   4.9367  -0.0480 N.ar           1 <1>                0.0000
      7 C7           2.2897   5.5907  -0.0428 C.ar           1 <1>                0.0000
      8 C8           1.0920   4.8824   0.0610 C.ar           1 <1>                0.0000
      9 N9           1.1105   3.5652   0.1494 N.ar           1 <1>                0.0000
     10 C10          2.2712   7.0190  -0.1433 C.1            1 <1>                0.0000
     11 N11          2.2565   8.1521  -0.2230 N.1            1 <1>                0.0000
     12 N12          1.1498  -0.5094   0.2416 N.am           1 <1>                0.0000
     13 C13         -0.0436  -1.2247   0.1375 C.ar           1 <1>                0.0000
     14 C14          0.0022  -2.5992   0.0290 C.ar           1 <1>                0.0000
     15 C15         -1.2078  -3.3048  -0.0745 C.ar           1 <1>                0.0000
     16 C16         -1.2494  -4.7030  -0.1878 C.ar           1 <1>                0.0000
     17 C17         -2.4532  -5.3321  -0.2845 C.ar           1 <1>                0.0000
     18 C18         -3.6448  -4.6086  -0.2726 C.ar           1 <1>                0.0000
     19 C19         -3.6428  -3.2515  -0.1641 C.ar           1 <1>                0.0000
     20 C20         -2.4211  -2.5667  -0.0622 C.ar           1 <1>                0.0000
     21 C21         -2.3605  -1.1693   0.0523 C.ar           1 <1>                0.0000
     22 N22         -1.1993  -0.5659   0.1508 N.ar           1 <1>                0.0000
     23 H23          3.1321   1.0596   0.3173 H              1 <1>                0.0000
     24 H24          4.4079   3.0942   0.0407 H              1 <1>                0.0000
     25 H25          0.1503   5.4111   0.0657 H              1 <1>                0.0000
     26 H26          1.9940  -0.9819   0.3117 H              1 <1>                0.0000
     27 H27          0.9476  -3.1212   0.0233 H              1 <1>                0.0000
     28 H28         -0.3337  -5.2755  -0.1985 H              1 <1>                0.0000
     29 H29         -2.4854  -6.4081  -0.3720 H              1 <1>                0.0000
     30 H30         -4.5854  -5.1335  -0.3513 H              1 <1>                0.0000
     31 H31         -4.5745  -2.7053  -0.1565 H              1 <1>                0.0000
     32 H32         -3.2717  -0.5896   0.0632 H              1 <1>                0.0000
@<TRIPOS>BOND
    1    1    2 2     
    2    2    3 am    
    3    2   12 am    
    4    3    4 1     
    5    3   23 1     
    6    4    9 ar    
    7    4    5 ar    
    8    5    6 ar    
    9    5   24 1     
   10    6    7 ar    
   11    7    8 ar    
   12    7   10 1     
   13    8    9 ar    
   14    8   25 1     
   15   10   11 3     
   16   12   13 1     
   17   12   26 1     
   18   13   22 ar    
   19   13   14 ar    
   20   14   15 ar    
   21   14   27 1     
   22   15   20 ar    
   23   15   16 ar    
   24   16   17 ar    
   25   16   28 1     
   26   17   18 ar    
   27   17   29 1     
   28   18   19 ar    
   29   18   30 1     
   30   19   20 ar    
   31   19   31 1     
   32   20   21 ar    
   33   21   22 ar    
   34   21   32 1     
@<TRIPOS>SUBSTRUCTURE
      1 ****           1
@<TRIPOS>SET
DONOR_HYDROGENS      STATIC     ATOMS    <user>   **** ""
2 23 26
ATOM$RED        STATIC     ATOMS    COLORGROUP SYSTEM
2 23 26
