#       Name:                H8H
#       Creating user name   gbret
#       Creation time:       Fri Sep  9 09:10:04 2016


#       File generated by GOLD software.
#

@<TRIPOS>MOLECULE
H8H
    71    76     1
SMALL
NO_CHARGES


@<TRIPOS>ATOM
      1 C1          -1.8002   2.8004  -7.2119 C.3            1 <1>                0.0000
      2 N2          -1.7857   1.4264  -6.6925 N.3            1 <1>                0.0000
      3 C3          -0.6750   1.2313  -5.7499 C.3            1 <1>                0.0000
      4 C4          -0.6593  -0.2246  -5.2790 C.3            1 <1>                0.0000
      5 N5          -1.9375  -0.5429  -4.6289 N.4            1 <1>                0.0000
      6 H6          -2.0774   0.0736  -3.8425 H              1 <1>                0.0000
      7 C7          -1.9153  -1.9353  -4.1613 C.3            1 <1>                0.0000
      8 C8          -0.8743  -2.0835  -3.0498 C.3            1 <1>                0.0000
      9 O9          -1.2244  -1.2366  -1.9534 O.3            1 <1>                0.0000
     10 C10         -0.3975  -1.2490  -0.8763 C.ar           1 <1>                0.0000
     11 C11         -0.6913  -0.4467   0.2270 C.ar           1 <1>                0.0000
     12 C12          0.1330  -0.4426   1.3314 C.ar           1 <1>                0.0000
     13 O13         -0.1601   0.3404   2.4006 O.3            1 <1>                0.0000
     14 C14         -1.2709   1.2295   2.2685 C.3            1 <1>                0.0000
     15 C15         -2.5640   0.4907   2.6268 C.3            1 <1>                0.0000
     16 C16         -3.7381   1.4708   2.5588 C.3            1 <1>                0.0000
     17 O17         -3.4950   2.5655   3.4447 O.3            1 <1>                0.0000
     18 C18         -2.3242   3.3220   3.1297 C.3            1 <1>                0.0000
     19 C19         -1.0933   2.4163   3.2206 C.3            1 <1>                0.0000
     20 C20          1.2790  -1.2558   1.3421 C.ar           1 <1>                0.0000
     21 C21          2.1596  -1.2927   2.4465 C.ar           1 <1>                0.0000
     22 N22          1.9231  -0.5232   3.5665 N.pl3          1 <1>                0.0000
     23 C23          2.7089  -0.6954   4.7135 C.ar           1 <1>                0.0000
     24 C24          4.0960  -0.6417   4.6221 C.ar           1 <1>                0.0000
     25 O25          4.9259  -0.4389   3.5564 O.3            1 <1>                0.0000
     26 C26          6.2000  -0.0817   4.1244 C.3            1 <1>                0.0000
     27 O27          6.1881  -0.7179   5.4160 O.3            1 <1>                0.0000
     28 C28          4.8711  -0.8128   5.7638 C.ar           1 <1>                0.0000
     29 C29          4.2586  -1.0368   6.9878 C.ar           1 <1>                0.0000
     30 C30          2.8801  -1.0909   7.0754 C.ar           1 <1>                0.0000
     31 C31          2.1040  -0.9144   5.9445 C.ar           1 <1>                0.0000
     32 Cl32         0.3733  -0.9834   6.0607 Cl             1 <1>                0.0000
     33 N33          3.2206  -2.0882   2.3778 N.ar           1 <1>                0.0000
     34 C34          3.4589  -2.8318   1.3098 C.ar           1 <1>                0.0000
     35 N35          2.6769  -2.8381   0.2562 N.ar           1 <1>                0.0000
     36 C36          1.5761  -2.0699   0.2212 C.ar           1 <1>                0.0000
     37 C37          0.7195  -2.0590  -0.8844 C.ar           1 <1>                0.0000
     38 C38         -3.0345  -0.3672  -5.5897 C.3            1 <1>                0.0000
     39 C39         -3.0700   1.0876  -6.0632 C.3            1 <1>                0.0000
     40 H40         -1.9826   3.4964  -6.3931 H              1 <1>                0.0000
     41 H41         -0.8380   3.0250  -7.6722 H              1 <1>                0.0000
     42 H42         -2.5908   2.8993  -7.9557 H              1 <1>                0.0000
     43 H43          0.2676   1.4634  -6.2455 H              1 <1>                0.0000
     44 H44         -0.8067   1.8898  -4.8913 H              1 <1>                0.0000
     45 H45         -0.5140  -0.8821  -6.1361 H              1 <1>                0.0000
     46 H46          0.1551  -0.3680  -4.5688 H              1 <1>                0.0000
     47 H47         -2.8987  -2.2051  -3.7764 H              1 <1>                0.0000
     48 H48         -1.6569  -2.5932  -4.9911 H              1 <1>                0.0000
     49 H49         -0.8466  -3.1201  -2.7138 H              1 <1>                0.0000
     50 H50          0.1066  -1.7986  -3.4303 H              1 <1>                0.0000
     51 H51         -1.5727   0.1773   0.2151 H              1 <1>                0.0000
     52 H52         -1.3285   1.5911   1.2419 H              1 <1>                0.0000
     53 H53         -2.7269  -0.3224   1.9194 H              1 <1>                0.0000
     54 H54         -2.4849   0.0865   3.6360 H              1 <1>                0.0000
     55 H55         -3.8417   1.8439   1.5399 H              1 <1>                0.0000
     56 H56         -4.6550   0.9608   2.8544 H              1 <1>                0.0000
     57 H57         -2.4093   3.7193   2.1182 H              1 <1>                0.0000
     58 H58         -2.2225   4.1456   3.8365 H              1 <1>                0.0000
     59 H59         -0.9845   2.0509   4.2418 H              1 <1>                0.0000
     60 H60         -0.2044   2.9802   2.9379 H              1 <1>                0.0000
     61 H61          1.2127   0.1373   3.5600 H              1 <1>                0.0000
     62 H62          7.0145  -0.4705   3.5133 H              1 <1>                0.0000
     63 H63          6.2822   1.0000   4.2309 H              1 <1>                0.0000
     64 H64          4.8603  -1.1697   7.8748 H              1 <1>                0.0000
     65 H65          2.4077  -1.2663   8.0307 H              1 <1>                0.0000
     66 H66          4.3364  -3.4614   1.3048 H              1 <1>                0.0000
     67 H67          0.9334  -2.6792  -1.7423 H              1 <1>                0.0000
     68 H68         -2.8770  -1.0239  -6.4452 H              1 <1>                0.0000
     69 H69         -3.9810  -0.6162  -5.1099 H              1 <1>                0.0000
     70 H70         -3.2411   1.7437  -5.2098 H              1 <1>                0.0000
     71 H71         -3.8746   1.2148  -6.7874 H              1 <1>                0.0000
@<TRIPOS>BOND
    1    1    2 1     
    2    1   40 1     
    3    1   41 1     
    4    1   42 1     
    5    2   39 1     
    6    2    3 1     
    7    3    4 1     
    8    3   43 1     
    9    3   44 1     
   10    4    5 1     
   11    4   45 1     
   12    4   46 1     
   13    5    6 1     
   14    5    7 1     
   15    5   38 1     
   16    7    8 1     
   17    7   47 1     
   18    7   48 1     
   19    8    9 1     
   20    8   49 1     
   21    8   50 1     
   22    9   10 1     
   23   10   37 ar    
   24   10   11 ar    
   25   11   12 ar    
   26   11   51 1     
   27   12   13 1     
   28   12   20 ar    
   29   13   14 1     
   30   14   19 1     
   31   14   15 1     
   32   14   52 1     
   33   15   16 1     
   34   15   53 1     
   35   15   54 1     
   36   16   17 1     
   37   16   55 1     
   38   16   56 1     
   39   17   18 1     
   40   18   19 1     
   41   18   57 1     
   42   18   58 1     
   43   19   59 1     
   44   19   60 1     
   45   20   36 ar    
   46   20   21 ar    
   47   21   22 1     
   48   21   33 ar    
   49   22   23 1     
   50   22   61 1     
   51   23   31 ar    
   52   23   24 ar    
   53   24   28 ar    
   54   24   25 1     
   55   25   26 1     
   56   26   27 1     
   57   26   62 1     
   58   26   63 1     
   59   27   28 1     
   60   28   29 ar    
   61   29   30 ar    
   62   29   64 1     
   63   30   31 ar    
   64   30   65 1     
   65   31   32 1     
   66   33   34 ar    
   67   34   35 ar    
   68   34   66 1     
   69   35   36 ar    
   70   36   37 ar    
   71   37   67 1     
   72   38   39 1     
   73   38   68 1     
   74   38   69 1     
   75   39   70 1     
   76   39   71 1     
@<TRIPOS>SUBSTRUCTURE
      1 ****           1
@<TRIPOS>SET
DONOR_HYDROGENS      STATIC     ATOMS    <user>   **** ""
2 6 61
ATOM$RED        STATIC     ATOMS    COLORGROUP SYSTEM
2 6 61
