#       Name:                HCC
#       Creating user name   gbret
#       Creation time:       Fri Sep  9 09:14:33 2016


#       File generated by GOLD software.
#

@<TRIPOS>MOLECULE
HCC
    31    32     1
SMALL
NO_CHARGES


@<TRIPOS>ATOM
      1 O1          -0.0638   6.1602  -1.6841 O.3            1 <1>                0.0000
      2 C2          -0.0454   4.8030  -1.6916 C.ar           1 <1>                0.0000
      3 C3          -0.0418   4.1169  -2.9009 C.ar           1 <1>                0.0000
      4 C4          -0.0232   2.7407  -2.9141 C.ar           1 <1>                0.0000
      5 C5          -0.0078   2.0316  -1.7068 C.ar           1 <1>                0.0000
      6 C6           0.0126   0.5625  -1.7149 C.2            1 <1>                0.0000
      7 C7           0.0273  -0.1195  -0.5483 C.2            1 <1>                0.0000
      8 C8           0.0477  -1.5812  -0.5564 C.2            1 <1>                0.0000
      9 O9           0.0513  -2.1845  -1.6147 O.2            1 <1>                0.0000
     10 C10          0.0638  -2.3252   0.7163 C.ar           1 <1>                0.0000
     11 C11          0.0538  -1.6355   1.9330 C.ar           1 <1>                0.0000
     12 C12          0.0684  -2.3332   3.1183 C.ar           1 <1>                0.0000
     13 C13          0.0936  -3.7250   3.1122 C.ar           1 <1>                0.0000
     14 O14          0.1079  -4.4058   4.2863 O.3            1 <1>                0.0000
     15 C15          0.1036  -4.4191   1.9113 C.ar           1 <1>                0.0000
     16 C16          0.0833  -3.7284   0.7119 C.ar           1 <1>                0.0000
     17 O17          0.0926  -4.4055  -0.4638 O.3            1 <1>                0.0000
     18 C18         -0.0116   2.7275  -0.4918 C.ar           1 <1>                0.0000
     19 C19         -0.0245   4.1039  -0.4899 C.ar           1 <1>                0.0000
     20 H20          0.8141   6.5655  -1.6903 H              1 <1>                0.0000
     21 H21         -0.0540   4.6648  -3.8315 H              1 <1>                0.0000
     22 H22         -0.0207   2.2087  -3.8540 H              1 <1>                0.0000
     23 H23          0.0158   0.0277  -2.6532 H              1 <1>                0.0000
     24 H24          0.0241   0.4154   0.3899 H              1 <1>                0.0000
     25 H25          0.0350  -0.5557   1.9419 H              1 <1>                0.0000
     26 H26          0.0607  -1.7993   4.0570 H              1 <1>                0.0000
     27 H27         -0.7712  -4.6190   4.6280 H              1 <1>                0.0000
     28 H28          0.1235  -5.4989   1.9121 H              1 <1>                0.0000
     29 H29         -0.7879  -4.6208  -0.8006 H              1 <1>                0.0000
     30 H30          0.0002   2.1853   0.4421 H              1 <1>                0.0000
     31 H31         -0.0270   4.6417   0.4467 H              1 <1>                0.0000
@<TRIPOS>BOND
    1    1    2 1     
    2    1   20 1     
    3    2   19 ar    
    4    2    3 ar    
    5    3    4 ar    
    6    3   21 1     
    7    4    5 ar    
    8    4   22 1     
    9    5    6 1     
   10    5   18 ar    
   11    6    7 2     
   12    6   23 1     
   13    7    8 1     
   14    7   24 1     
   15    8    9 2     
   16    8   10 1     
   17   10   16 ar    
   18   10   11 ar    
   19   11   12 ar    
   20   11   25 1     
   21   12   13 ar    
   22   12   26 1     
   23   13   14 1     
   24   13   15 ar    
   25   14   27 1     
   26   15   16 ar    
   27   15   28 1     
   28   16   17 1     
   29   17   29 1     
   30   18   19 ar    
   31   18   30 1     
   32   19   31 1     
@<TRIPOS>SUBSTRUCTURE
      1 ****           1
@<TRIPOS>SET
DONOR_HYDROGENS      STATIC     ATOMS    <user>   **** ""
3 20 27 29
ATOM$RED        STATIC     ATOMS    COLORGROUP SYSTEM
3 20 27 29
