#       Name:                HHD
#       Creating user name   gbret
#       Creation time:       Fri Sep  9 09:20:35 2016


#       File generated by GOLD software.
#

@<TRIPOS>MOLECULE
HHD
    22    21     1
SMALL
NO_CHARGES


@<TRIPOS>ATOM
      1 O1          -0.2958   1.5993   1.2027 O.3            1 <1>                0.0000
      2 C2          -0.2764   0.1704   1.1948 C.3            1 <1>                0.0000
      3 C3           0.4397  -0.3230  -0.0640 C.3            1 <1>                0.0000
      4 C4          -0.3677   0.0777  -1.3003 C.3            1 <1>                0.0000
      5 C5           0.3484  -0.4158  -2.5591 C.3            1 <1>                0.0000
      6 C6          -0.4469  -0.0211  -3.7768 C.2            1 <1>                0.0000
      7 O7          -1.4898   0.5974  -3.6496 O.co2          1 <1>                0.0000
      8 O8          -0.0474  -0.3204  -4.8891 O.co2          1 <1>                0.0000
      9 C9           0.4636  -0.3364   2.4343 C.3            1 <1>                0.0000
     10 C10         -0.3083   0.0450   3.6712 C.2            1 <1>                0.0000
     11 O11         -1.3534   0.6648   3.5706 O.co2          1 <1>                0.0000
     12 O12          0.1123  -0.2661   4.7724 O.co2          1 <1>                0.0000
     13 H13          0.5821   2.0046   1.1965 H              1 <1>                0.0000
     14 H14         -1.2990  -0.2069   1.2026 H              1 <1>                0.0000
     15 H15          1.4318   0.1254  -0.1170 H              1 <1>                0.0000
     16 H16          0.5331  -1.4084  -0.0270 H              1 <1>                0.0000
     17 H17         -1.3598  -0.3707  -1.2473 H              1 <1>                0.0000
     18 H18         -0.4611   1.1630  -1.3372 H              1 <1>                0.0000
     19 H19          1.3405   0.0327  -2.6121 H              1 <1>                0.0000
     20 H20          0.4418  -1.5011  -2.5221 H              1 <1>                0.0000
     21 H21          0.5561  -1.4213   2.3840 H              1 <1>                0.0000
     22 H22          1.4565   0.1115   2.4732 H              1 <1>                0.0000
@<TRIPOS>BOND
    1    1    2 1     
    2    1   13 1     
    3    2    3 1     
    4    2    9 1     
    5    2   14 1     
    6    3    4 1     
    7    3   15 1     
    8    3   16 1     
    9    4    5 1     
   10    4   17 1     
   11    4   18 1     
   12    5    6 1     
   13    5   19 1     
   14    5   20 1     
   15    6    7 ar    
   16    6    8 ar    
   17    9   10 1     
   18    9   21 1     
   19    9   22 1     
   20   10   11 ar    
   21   10   12 ar    
@<TRIPOS>SUBSTRUCTURE
      1 ****           1
@<TRIPOS>SET
DONOR_HYDROGENS      STATIC     ATOMS    <user>   **** ""
1 13
ATOM$RED        STATIC     ATOMS    COLORGROUP SYSTEM
1 13
