#       Name:                HMA
#       Creating user name   gbret
#       Creation time:       Fri Sep  9 09:25:38 2016


#       File generated by GOLD software.
#

@<TRIPOS>MOLECULE
HMA
    16    15     1
SMALL
NO_CHARGES


@<TRIPOS>ATOM
      1 C1           0.6903   1.4120  -0.0056 C.3            1 <1>                0.0000
      2 C2           0.7111  -0.1179  -0.0140 C.3            1 <1>                0.0000
      3 N3           1.4216  -0.6045   1.1761 N.4            1 <1>                0.0000
      4 H4           0.9493  -0.2791   2.0063 H              1 <1>                0.0000
      5 H5           1.4352  -1.6134   1.1706 H              1 <1>                0.0000
      6 H6           2.3682  -0.2553   1.1690 H              1 <1>                0.0000
      7 C7          -0.7027  -0.6395  -0.0033 C.2            1 <1>                0.0000
      8 O8          -1.0812  -1.3470   0.9062 O.2            1 <1>                0.0000
      9 N9          -1.5466  -0.3198  -1.0044 N.am           1 <1>                0.0000
     10 O10         -2.8750  -0.8099  -0.9943 O.3            1 <1>                0.0000
     11 H11          1.7129   1.7893  -0.0133 H              1 <1>                0.0000
     12 H12          0.1631   1.7730  -0.8886 H              1 <1>                0.0000
     13 H13          0.1801   1.7635   0.8912 H              1 <1>                0.0000
     14 H14          1.2213  -0.4694  -0.9108 H              1 <1>                0.0000
     15 H15         -1.2439   0.2460  -1.7318 H              1 <1>                0.0000
     16 H16         -3.4041  -0.5276  -1.7529 H              1 <1>                0.0000
@<TRIPOS>BOND
    1    1    2 1     
    2    1   11 1     
    3    1   12 1     
    4    1   13 1     
    5    2    3 1     
    6    2    7 1     
    7    2   14 1     
    8    3    4 1     
    9    3    5 1     
   10    3    6 1     
   11    7    8 2     
   12    7    9 am    
   13    9   10 1     
   14    9   15 1     
   15   10   16 1     
@<TRIPOS>SUBSTRUCTURE
      1 ****           1
@<TRIPOS>SET
DONOR_HYDROGENS      STATIC     ATOMS    <user>   **** ""
5 4 5 6 15 16
ATOM$RED        STATIC     ATOMS    COLORGROUP SYSTEM
5 4 5 6 15 16
