#       Name:                HMY
#       Creating user name   gbret
#       Creation time:       Fri Sep  9 09:26:50 2016


#       File generated by GOLD software.
#

@<TRIPOS>MOLECULE
HMY
    48    50     1
SMALL
NO_CHARGES


@<TRIPOS>ATOM
      1 C1          -2.8877   4.6069  -3.8917 C.3            1 <1>                0.0000
      2 O2          -2.8683   3.1780  -3.8996 O.3            1 <1>                0.0000
      3 C3          -2.2455   2.5646  -2.8616 C.ar           1 <1>                0.0000
      4 C4          -1.6702   3.3248  -1.8538 C.ar           1 <1>                0.0000
      5 C5          -1.0368   2.7012  -0.7946 C.ar           1 <1>                0.0000
      6 O6          -0.4721   3.4434   0.1905 O.co2          1 <1>                0.0000
      7 C7          -0.9786   1.2965  -0.7387 C.ar           1 <1>                0.0000
      8 C8          -1.5572   0.5405  -1.7608 C.ar           1 <1>                0.0000
      9 C9          -2.1911   1.1767  -2.8090 C.ar           1 <1>                0.0000
     10 C10         -1.5139  -0.9652  -1.7525 C.3            1 <1>                0.0000
     11 O11         -0.7031  -1.5788  -2.7605 O.3            1 <1>                0.0000
     12 C12         -0.2050  -1.6813  -1.4233 C.3            1 <1>                0.0000
     13 C13         -0.2841  -3.0656  -0.7735 C.3            1 <1>                0.0000
     14 C14          0.3072  -3.0207   0.6339 C.3            1 <1>                0.0000
     15 O15         -0.5256  -3.7668   1.5237 O.3            1 <1>                0.0000
     16 C16          1.7137  -3.6282   0.6221 C.3            1 <1>                0.0000
     17 O17          2.0955  -3.9293  -0.7217 O.3            1 <1>                0.0000
     18 C18          2.6757  -2.6201   1.2101 C.2            1 <1>                0.0000
     19 O19          3.8496  -2.8920   1.3518 O.2            1 <1>                0.0000
     20 C20          2.1589  -1.3108   1.6034 C.2            1 <1>                0.0000
     21 C21          2.9566  -0.3758   2.1228 C.2            1 <1>                0.0000
     22 C22          2.3377   0.9516   2.5042 C.3            1 <1>                0.0000
     23 C23          0.8147   0.7861   2.5202 C.3            1 <1>                0.0000
     24 C24          0.2481   1.4183   3.7931 C.3            1 <1>                0.0000
     25 O25          0.2366   1.4358   1.3618 O.3            1 <1>                0.0000
     26 C26         -0.3093   0.6532   0.4057 C.2            1 <1>                0.0000
     27 O27         -0.2500  -0.5580   0.4880 O.2            1 <1>                0.0000
     28 H28         -1.8651   4.9842  -3.8995 H              1 <1>                0.0000
     29 H29         -3.4149   4.9680  -4.7748 H              1 <1>                0.0000
     30 H30         -3.3979   4.9584  -2.9949 H              1 <1>                0.0000
     31 H31         -1.7167   4.4029  -1.8967 H              1 <1>                0.0000
     32 H32         -2.6403   0.5922  -3.5982 H              1 <1>                0.0000
     33 H33         -2.4492  -1.4625  -1.4919 H              1 <1>                0.0000
     34 H34          0.6589  -1.0766  -1.1548 H              1 <1>                0.0000
     35 H35         -1.3264  -3.3795  -0.7176 H              1 <1>                0.0000
     36 H36          0.2745  -3.7807  -1.3774 H              1 <1>                0.0000
     37 H37          0.3627  -1.9857   0.9712 H              1 <1>                0.0000
     38 H38         -0.2104  -3.7819   2.4378 H              1 <1>                0.0000
     39 H39          1.7238  -4.5403   1.2188 H              1 <1>                0.0000
     40 H40          2.9774  -4.3177  -0.8024 H              1 <1>                0.0000
     41 H41          1.1090  -1.0954   1.4704 H              1 <1>                0.0000
     42 H42          4.0110  -0.5603   2.2662 H              1 <1>                0.0000
     43 H43          2.6854   1.2481   3.4938 H              1 <1>                0.0000
     44 H44          2.6171   1.7106   1.7735 H              1 <1>                0.0000
     45 H45          0.5655  -0.2748   2.5009 H              1 <1>                0.0000
     46 H46          0.4992   2.4787   3.8150 H              1 <1>                0.0000
     47 H47         -0.8355   1.3012   3.8056 H              1 <1>                0.0000
     48 H48          0.6769   0.9253   4.6656 H              1 <1>                0.0000
@<TRIPOS>BOND
    1    1    2 1     
    2    1   28 1     
    3    1   29 1     
    4    1   30 1     
    5    2    3 1     
    6    3    9 ar    
    7    3    4 ar    
    8    4    5 ar    
    9    4   31 1     
   10    5    6 ar    
   11    5    7 ar    
   12    7   26 1     
   13    7    8 ar    
   14    8    9 ar    
   15    8   10 1     
   16    9   32 1     
   17   10   12 1     
   18   10   11 1     
   19   10   33 1     
   20   11   12 1     
   21   12   13 1     
   22   12   34 1     
   23   13   14 1     
   24   13   35 1     
   25   13   36 1     
   26   14   15 1     
   27   14   16 1     
   28   14   37 1     
   29   15   38 1     
   30   16   17 1     
   31   16   18 1     
   32   16   39 1     
   33   17   40 1     
   34   18   19 2     
   35   18   20 1     
   36   20   21 2     
   37   20   41 1     
   38   21   22 1     
   39   21   42 1     
   40   22   23 1     
   41   22   43 1     
   42   22   44 1     
   43   23   24 1     
   44   23   25 1     
   45   23   45 1     
   46   24   46 1     
   47   24   47 1     
   48   24   48 1     
   49   25   26 1     
   50   26   27 2     
@<TRIPOS>SUBSTRUCTURE
      1 ****           1
@<TRIPOS>SET
DONOR_HYDROGENS      STATIC     ATOMS    <user>   **** ""
2 38 40
ATOM$RED        STATIC     ATOMS    COLORGROUP SYSTEM
2 38 40
