#       Name:                HO2
#       Creating user name   gbret
#       Creation time:       Fri Sep  9 09:28:35 2016


#       File generated by GOLD software.
#

@<TRIPOS>MOLECULE
HO2
    52    51     1
SMALL
NO_CHARGES


@<TRIPOS>ATOM
      1 C1           6.4265   6.2175   2.5815 C.3            1 <1>                0.0000
      2 C2           6.4473   4.6876   2.5731 C.3            1 <1>                0.0000
      3 C3           5.0119   4.1581   2.5840 C.3            1 <1>                0.0000
      4 C4           5.0326   2.6282   2.5756 C.3            1 <1>                0.0000
      5 C5           3.5973   2.0986   2.5864 C.3            1 <1>                0.0000
      6 C6           3.6180   0.5688   2.5780 C.3            1 <1>                0.0000
      7 O7           4.2054   0.0937   3.7910 O.3            1 <1>                0.0000
      8 C8           2.2084   0.0479   2.4648 C.2            1 <1>                0.0000
      9 C9           1.8629  -0.7151   1.4334 C.2            1 <1>                0.0000
     10 C10          0.4869  -1.2236   1.3229 C.2            1 <1>                0.0000
     11 C11          0.1414  -1.9866   0.2914 C.2            1 <1>                0.0000
     12 C12         -1.2682  -2.5074   0.1782 C.3            1 <1>                0.0000
     13 C13         -1.8541  -2.1031  -1.1761 C.3            1 <1>                0.0000
     14 C14         -3.2852  -2.6320  -1.2910 C.3            1 <1>                0.0000
     15 C15         -3.8711  -2.2277  -2.6453 C.3            1 <1>                0.0000
     16 C16         -5.3022  -2.7565  -2.7602 C.3            1 <1>                0.0000
     17 C17         -5.8881  -2.3522  -4.1145 C.3            1 <1>                0.0000
     18 C18         -7.3192  -2.8810  -4.2294 C.3            1 <1>                0.0000
     19 C19         -7.8963  -2.4828  -5.5634 C.2            1 <1>                0.0000
     20 O20         -7.2252  -1.8359  -6.3493 O.co2          1 <1>                0.0000
     21 O21         -9.0344  -2.8074  -5.8566 O.co2          1 <1>                0.0000
     22 H22          7.4491   6.5948   2.5738 H              1 <1>                0.0000
     23 H23          5.8993   6.5785   1.6985 H              1 <1>                0.0000
     24 H24          5.9163   6.5690   3.4783 H              1 <1>                0.0000
     25 H25          6.9575   4.3361   1.6763 H              1 <1>                0.0000
     26 H26          6.9745   4.3266   3.4562 H              1 <1>                0.0000
     27 H27          4.5017   4.5096   3.4808 H              1 <1>                0.0000
     28 H28          4.4847   4.5191   1.7009 H              1 <1>                0.0000
     29 H29          5.5428   2.2767   1.6788 H              1 <1>                0.0000
     30 H30          5.5598   2.2671   3.4586 H              1 <1>                0.0000
     31 H31          3.0871   2.4502   3.4832 H              1 <1>                0.0000
     32 H32          3.0701   2.4597   1.7034 H              1 <1>                0.0000
     33 H33          4.2043   0.2180   1.7287 H              1 <1>                0.0000
     34 H34          3.7348   0.3683   4.5898 H              1 <1>                0.0000
     35 H35          1.4791   0.2948   3.2221 H              1 <1>                0.0000
     36 H36          2.5923  -0.9619   0.6761 H              1 <1>                0.0000
     37 H37         -0.2425  -0.9767   2.0802 H              1 <1>                0.0000
     38 H38          0.8707  -2.2334  -0.4659 H              1 <1>                0.0000
     39 H39         -1.2618  -3.5942   0.2615 H              1 <1>                0.0000
     40 H40         -1.8768  -2.0854   0.9780 H              1 <1>                0.0000
     41 H41         -1.8606  -1.0163  -1.2593 H              1 <1>                0.0000
     42 H42         -1.2455  -2.5251  -1.9758 H              1 <1>                0.0000
     43 H43         -3.2788  -3.7188  -1.2078 H              1 <1>                0.0000
     44 H44         -3.8938  -2.2099  -0.4912 H              1 <1>                0.0000
     45 H45         -3.8776  -1.1409  -2.7285 H              1 <1>                0.0000
     46 H46         -3.2625  -2.6497  -3.4450 H              1 <1>                0.0000
     47 H47         -5.2958  -3.8433  -2.6770 H              1 <1>                0.0000
     48 H48         -5.9108  -2.3345  -1.9604 H              1 <1>                0.0000
     49 H49         -5.8946  -1.2654  -4.1977 H              1 <1>                0.0000
     50 H50         -5.2795  -2.7742  -4.9143 H              1 <1>                0.0000
     51 H51         -7.3128  -3.9678  -4.1462 H              1 <1>                0.0000
     52 H52         -7.9278  -2.4590  -3.4297 H              1 <1>                0.0000
@<TRIPOS>BOND
    1    1    2 1     
    2    1   22 1     
    3    1   23 1     
    4    1   24 1     
    5    2    3 1     
    6    2   25 1     
    7    2   26 1     
    8    3    4 1     
    9    3   27 1     
   10    3   28 1     
   11    4    5 1     
   12    4   29 1     
   13    4   30 1     
   14    5    6 1     
   15    5   31 1     
   16    5   32 1     
   17    6    7 1     
   18    6    8 1     
   19    6   33 1     
   20    7   34 1     
   21    8    9 2     
   22    8   35 1     
   23    9   10 1     
   24    9   36 1     
   25   10   11 2     
   26   10   37 1     
   27   11   12 1     
   28   11   38 1     
   29   12   13 1     
   30   12   39 1     
   31   12   40 1     
   32   13   14 1     
   33   13   41 1     
   34   13   42 1     
   35   14   15 1     
   36   14   43 1     
   37   14   44 1     
   38   15   16 1     
   39   15   45 1     
   40   15   46 1     
   41   16   17 1     
   42   16   47 1     
   43   16   48 1     
   44   17   18 1     
   45   17   49 1     
   46   17   50 1     
   47   18   19 1     
   48   18   51 1     
   49   18   52 1     
   50   19   20 ar    
   51   19   21 ar    
@<TRIPOS>SUBSTRUCTURE
      1 ****           1
@<TRIPOS>SET
DONOR_HYDROGENS      STATIC     ATOMS    <user>   **** ""
1 34
ATOM$RED        STATIC     ATOMS    COLORGROUP SYSTEM
1 34
