#       Name:                HPM
#       Creating user name   gbret
#       Creation time:       Fri Sep  9 09:30:52 2016


#       File generated by GOLD software.
#

@<TRIPOS>MOLECULE
HPM
    71    75     1
SMALL
NO_CHARGES


@<TRIPOS>ATOM
      1 C1          -2.0284   2.5528   2.2698 C.3            1 <1>                0.0000
      2 O2          -2.1561   1.1308   2.2096 O.3            1 <1>                0.0000
      3 C3          -1.3716   0.4780   1.3110 C.ar           1 <1>                0.0000
      4 C4          -0.5096   1.1889   0.5249 C.ar           1 <1>                0.0000
      5 C5           0.2989   0.5179  -0.4002 C.ar           1 <1>                0.0000
      6 C6           1.2086   1.2063  -1.2377 C.ar           1 <1>                0.0000
      7 N7           1.3327   2.5792  -1.1716 N.pl3          1 <1>                0.0000
      8 C8           2.1497   3.2534  -2.0876 C.ar           1 <1>                0.0000
      9 C9           2.3130   2.7742  -3.3845 C.ar           1 <1>                0.0000
     10 N10          3.0921   3.4379  -4.2220 N.ar           1 <1>                0.0000
     11 C11          3.7120   4.5436  -3.8403 C.ar           1 <1>                0.0000
     12 N12          4.5223   5.2133  -4.7500 N.am           1 <1>                0.0000
     13 C13          5.1617   6.3407  -4.3803 C.2            1 <1>                0.0000
     14 O14          5.0299   6.7718  -3.2515 O.2            1 <1>                0.0000
     15 C15          6.0232   7.0527  -5.3474 C.ar           1 <1>                0.0000
     16 C16          6.1722   6.5635  -6.6463 C.ar           1 <1>                0.0000
     17 C17          6.9779   7.2329  -7.5439 C.ar           1 <1>                0.0000
     18 C18          7.6378   8.3866  -7.1592 C.ar           1 <1>                0.0000
     19 C19          7.4944   8.8770  -5.8734 C.ar           1 <1>                0.0000
     20 C20          6.6869   8.2207  -4.9676 C.ar           1 <1>                0.0000
     21 N21          3.5805   5.0288  -2.6157 N.ar           1 <1>                0.0000
     22 C22          2.8137   4.4222  -1.7251 C.ar           1 <1>                0.0000
     23 N23          1.9393   0.4966  -2.0878 N.ar           1 <1>                0.0000
     24 C24          1.8306  -0.8204  -2.1613 C.ar           1 <1>                0.0000
     25 N25          1.0055  -1.5110  -1.4109 N.ar           1 <1>                0.0000
     26 C26          0.2191  -0.8921  -0.5163 C.ar           1 <1>                0.0000
     27 C27         -0.6713  -1.6006   0.2994 C.ar           1 <1>                0.0000
     28 C28         -1.4521  -0.9175   1.2055 C.ar           1 <1>                0.0000
     29 O29         -2.3166  -1.6024   1.9986 O.3            1 <1>                0.0000
     30 C30         -2.3602  -3.0216   1.8366 C.3            1 <1>                0.0000
     31 C31         -3.3836  -3.6144   2.8072 C.3            1 <1>                0.0000
     32 O32         -4.6912  -3.1540   2.4606 O.3            1 <1>                0.0000
     33 C33         -3.3415  -5.1415   2.7227 C.3            1 <1>                0.0000
     34 N34         -4.2904  -5.7117   3.6883 N.4            1 <1>                0.0000
     35 H35         -5.2009  -5.3005   3.5465 H              1 <1>                0.0000
     36 C36         -4.3747  -7.1637   3.4902 C.3            1 <1>                0.0000
     37 C37         -5.4216  -7.7517   4.4387 C.3            1 <1>                0.0000
     38 C38         -5.0159  -7.4550   5.8853 C.3            1 <1>                0.0000
     39 C39         -4.8586  -5.9418   6.0608 C.3            1 <1>                0.0000
     40 C40         -3.8316  -5.4223   5.0522 C.3            1 <1>                0.0000
     41 H41         -1.0031   2.8147   2.5314 H              1 <1>                0.0000
     42 H42         -2.2764   2.9813   1.2988 H              1 <1>                0.0000
     43 H43         -2.7081   2.9470   3.0252 H              1 <1>                0.0000
     44 H44         -0.4524   2.2635   0.6165 H              1 <1>                0.0000
     45 H45          0.8540   3.0772  -0.4906 H              1 <1>                0.0000
     46 H46          1.8104   1.8725  -3.7023 H              1 <1>                0.0000
     47 H47          4.6275   4.8693  -5.6508 H              1 <1>                0.0000
     48 H48          5.6583   5.6626  -6.9476 H              1 <1>                0.0000
     49 H49          7.0941   6.8555  -8.5491 H              1 <1>                0.0000
     50 H50          8.2679   8.9065  -7.8657 H              1 <1>                0.0000
     51 H51          8.0122   9.7780  -5.5795 H              1 <1>                0.0000
     52 H52          6.5758   8.6045  -3.9643 H              1 <1>                0.0000
     53 H53          2.7108   4.8233  -0.7276 H              1 <1>                0.0000
     54 H54          2.4486  -1.3502  -2.8710 H              1 <1>                0.0000
     55 H55         -0.7425  -2.6755   0.2217 H              1 <1>                0.0000
     56 H56         -2.6484  -3.2618   0.8132 H              1 <1>                0.0000
     57 H57         -1.3761  -3.4414   2.0450 H              1 <1>                0.0000
     58 H58         -3.1452  -3.3001   3.8233 H              1 <1>                0.0000
     59 H59         -4.9702  -3.3982   1.5675 H              1 <1>                0.0000
     60 H60         -3.6140  -5.4573   1.7157 H              1 <1>                0.0000
     61 H61         -2.3349  -5.4906   2.9530 H              1 <1>                0.0000
     62 H62         -4.6604  -7.3733   2.4594 H              1 <1>                0.0000
     63 H63         -3.4041  -7.6149   3.6962 H              1 <1>                0.0000
     64 H64         -6.3927  -7.3013   4.2334 H              1 <1>                0.0000
     65 H65         -5.4814  -8.8301   4.2914 H              1 <1>                0.0000
     66 H66         -5.7867  -7.8223   6.5627 H              1 <1>                0.0000
     67 H67         -4.0693  -7.9480   6.1068 H              1 <1>                0.0000
     68 H68         -5.8180  -5.4538   5.8891 H              1 <1>                0.0000
     69 H69         -4.5159  -5.7265   7.0729 H              1 <1>                0.0000
     70 H70         -2.8730  -5.9113   5.2258 H              1 <1>                0.0000
     71 H71         -3.7163  -4.3453   5.1738 H              1 <1>                0.0000
@<TRIPOS>BOND
    1    1    2 1     
    2    1   41 1     
    3    1   42 1     
    4    1   43 1     
    5    2    3 1     
    6    3   28 ar    
    7    3    4 ar    
    8    4    5 ar    
    9    4   44 1     
   10    5   26 ar    
   11    5    6 ar    
   12    6    7 1     
   13    6   23 ar    
   14    7    8 1     
   15    7   45 1     
   16    8   22 ar    
   17    8    9 ar    
   18    9   10 ar    
   19    9   46 1     
   20   10   11 ar    
   21   11   12 1     
   22   11   21 ar    
   23   12   13 am    
   24   12   47 1     
   25   13   14 2     
   26   13   15 1     
   27   15   20 ar    
   28   15   16 ar    
   29   16   17 ar    
   30   16   48 1     
   31   17   18 ar    
   32   17   49 1     
   33   18   19 ar    
   34   18   50 1     
   35   19   20 ar    
   36   19   51 1     
   37   20   52 1     
   38   21   22 ar    
   39   22   53 1     
   40   23   24 ar    
   41   24   25 ar    
   42   24   54 1     
   43   25   26 ar    
   44   26   27 ar    
   45   27   28 ar    
   46   27   55 1     
   47   28   29 1     
   48   29   30 1     
   49   30   31 1     
   50   30   56 1     
   51   30   57 1     
   52   31   32 1     
   53   31   33 1     
   54   31   58 1     
   55   32   59 1     
   56   33   34 1     
   57   33   60 1     
   58   33   61 1     
   59   34   35 1     
   60   34   40 1     
   61   34   36 1     
   62   36   37 1     
   63   36   62 1     
   64   36   63 1     
   65   37   38 1     
   66   37   64 1     
   67   37   65 1     
   68   38   39 1     
   69   38   66 1     
   70   38   67 1     
   71   39   40 1     
   72   39   68 1     
   73   39   69 1     
   74   40   70 1     
   75   40   71 1     
@<TRIPOS>SUBSTRUCTURE
      1 ****           1
@<TRIPOS>SET
DONOR_HYDROGENS      STATIC     ATOMS    <user>   **** ""
4 45 47 59 35
ATOM$RED        STATIC     ATOMS    COLORGROUP SYSTEM
4 45 47 59 35
