#       Name:                HUP
#       Creating user name   gbret
#       Creation time:       Fri Sep  9 09:38:24 2016


#       File generated by GOLD software.
#

@<TRIPOS>MOLECULE
HUP
    37    39     1
SMALL
NO_CHARGES


@<TRIPOS>ATOM
      1 C1          -1.2875   3.1297   1.7695 C.3            1 <1>                0.0000
      2 C2          -1.2670   1.6228   1.7612 C.2            1 <1>                0.0000
      3 C3          -0.7004   0.9809   0.7698 C.2            1 <1>                0.0000
      4 C4          -0.0335   1.6772  -0.4105 C.3            1 <1>                0.0000
      5 C5           1.4665   1.3954  -0.2794 C.3            1 <1>                0.0000
      6 C6           1.7195  -0.0747  -0.0616 C.2            1 <1>                0.0000
      7 N7           2.9834  -0.5222  -0.3362 N.am           1 <1>                0.0000
      8 H8           3.6464   0.1063  -0.6622 H              1 <1>                0.0000
      9 C9           3.3298  -1.8072  -0.1659 C.2            1 <1>                0.0000
     10 O10          4.4669  -2.1731  -0.4170 O.2            1 <1>                0.0000
     11 C11          2.3795  -2.7306   0.3029 C.2            1 <1>                0.0000
     12 C12          1.1184  -2.2955   0.5703 C.2            1 <1>                0.0000
     13 C13          0.7858  -0.9397   0.3793 C.2            1 <1>                0.0000
     14 C14         -0.6345  -0.5362   0.6813 C.3            1 <1>                0.0000
     15 N15         -1.1018  -1.1556   1.9286 N.4            1 <1>                0.0000
     16 H16         -0.5116  -0.8609   2.6922 H              1 <1>                0.0000
     17 H17         -2.0529  -0.8715   2.1096 H              1 <1>                0.0000
     18 H18         -1.0617  -2.1600   1.8410 H              1 <1>                0.0000
     19 C19         -1.5141  -0.9366  -0.5131 C.3            1 <1>                0.0000
     20 C20         -1.1751  -0.0929  -1.7052 C.2            1 <1>                0.0000
     21 C21         -1.6089  -0.6011  -3.0559 C.3            1 <1>                0.0000
     22 C22         -0.5420   1.0351  -1.6738 C.2            1 <1>                0.0000
     23 H23         -0.2649   3.5070   1.7618 H              1 <1>                0.0000
     24 H24         -1.8146   3.4908   0.8864 H              1 <1>                0.0000
     25 H25         -1.7977   3.4812   2.6663 H              1 <1>                0.0000
     26 H26         -1.7196   1.0722   2.5726 H              1 <1>                0.0000
     27 H27         -0.2445   2.7466  -0.4039 H              1 <1>                0.0000
     28 H28          1.9723   1.7150  -1.1905 H              1 <1>                0.0000
     29 H29          1.8642   1.9567   0.5661 H              1 <1>                0.0000
     30 H30          2.6455  -3.7673   0.4480 H              1 <1>                0.0000
     31 H31          0.3726  -2.9891   0.9293 H              1 <1>                0.0000
     32 H32         -1.3433  -1.9862  -0.7524 H              1 <1>                0.0000
     33 H33         -2.5630  -0.7923  -0.2543 H              1 <1>                0.0000
     34 H34         -2.6065  -0.2248  -3.2825 H              1 <1>                0.0000
     35 H35         -0.9087  -0.2551  -3.8163 H              1 <1>                0.0000
     36 H36         -1.6252  -1.6909  -3.0460 H              1 <1>                0.0000
     37 H37         -0.3707   1.5461  -2.6097 H              1 <1>                0.0000
@<TRIPOS>BOND
    1    1    2 1     
    2    1   23 1     
    3    1   24 1     
    4    1   25 1     
    5    2    3 2     
    6    2   26 1     
    7    3   14 1     
    8    3    4 1     
    9    4   22 1     
   10    4    5 1     
   11    4   27 1     
   12    5    6 1     
   13    5   28 1     
   14    5   29 1     
   15    6   13 2     
   16    6    7 1     
   17    7    8 1     
   18    7    9 am    
   19    9   10 2     
   20    9   11 1     
   21   11   12 2     
   22   11   30 1     
   23   12   13 1     
   24   12   31 1     
   25   13   14 1     
   26   14   15 1     
   27   14   19 1     
   28   15   16 1     
   29   15   17 1     
   30   15   18 1     
   31   19   20 1     
   32   19   32 1     
   33   19   33 1     
   34   20   21 1     
   35   20   22 2     
   36   21   34 1     
   37   21   35 1     
   38   21   36 1     
   39   22   37 1     
@<TRIPOS>SUBSTRUCTURE
      1 ****           1
@<TRIPOS>SET
DONOR_HYDROGENS      STATIC     ATOMS    <user>   **** ""
4 8 16 17 18
ATOM$RED        STATIC     ATOMS    COLORGROUP SYSTEM
4 8 16 17 18
