#       Name:                I12
#       Creating user name   gbret
#       Creation time:       Fri Sep  9 09:43:47 2016


#       File generated by GOLD software.
#

@<TRIPOS>MOLECULE
I12
    90    91     1
SMALL
NO_CHARGES


@<TRIPOS>ATOM
      1 C1           2.4425   7.9083   7.6166 C.3            1 <1>                0.0000
      2 C2           2.0530   6.4300   7.6777 C.3            1 <1>                0.0000
      3 O3           2.2142   5.8323   6.3642 O.3            1 <1>                0.0000
      4 C4           1.9107   4.5243   6.2456 C.2            1 <1>                0.0000
      5 O5           1.5220   3.9005   7.2136 O.2            1 <1>                0.0000
      6 C6           2.0497   3.8527   4.9460 C.2            1 <1>                0.0000
      7 C7           1.7501   2.5613   4.8290 C.2            1 <1>                0.0000
      8 C8           1.8927   1.8725   3.4962 C.3            1 <1>                0.0000
      9 C9           2.7967   0.6477   3.6493 C.3            1 <1>                0.0000
     10 C10          4.2071   1.0995   4.0331 C.3            1 <1>                0.0000
     11 C11          5.1340  -0.1233   4.2242 C.3            1 <1>                0.0000
     12 C12          6.4723   0.4049   3.6619 C.3            1 <1>                0.0000
     13 N13          6.1076   1.4601   2.7093 N.am           1 <1>                0.0000
     14 C14          4.8425   1.8729   2.8987 C.2            1 <1>                0.0000
     15 O15          4.2905   2.7390   2.2537 O.2            1 <1>                0.0000
     16 N16          0.5729   1.4492   3.0216 N.am           1 <1>                0.0000
     17 C17          0.3621   1.2500   1.7054 C.2            1 <1>                0.0000
     18 O18          1.2363   1.5079   0.9054 O.2            1 <1>                0.0000
     19 C19         -0.9600   0.7067   1.2279 C.3            1 <1>                0.0000
     20 C20         -2.0826   1.6601   1.6419 C.3            1 <1>                0.0000
     21 C21         -3.4345   1.0492   1.2676 C.3            1 <1>                0.0000
     22 C22         -3.6627  -0.2239   2.0849 C.3            1 <1>                0.0000
     23 C23         -4.5487   2.0541   1.5670 C.3            1 <1>                0.0000
     24 N24         -0.9383   0.5824  -0.2317 N.am           1 <1>                0.0000
     25 C25         -1.7443  -0.3073  -0.8443 C.2            1 <1>                0.0000
     26 O26         -2.5373  -0.9551  -0.1943 O.2            1 <1>                0.0000
     27 C27         -1.6603  -0.4971  -2.3369 C.3            1 <1>                0.0000
     28 N28         -2.0451  -1.8691  -2.6772 N.am           1 <1>                0.0000
     29 C29         -1.5913  -2.4341  -3.8135 C.2            1 <1>                0.0000
     30 O30         -0.8644  -1.8068  -4.5544 O.2            1 <1>                0.0000
     31 C31         -1.9871  -3.8455  -4.1634 C.3            1 <1>                0.0000
     32 C32         -3.5094  -3.9317  -4.2901 C.3            1 <1>                0.0000
     33 N33         -1.3689  -4.2247  -5.4363 N.am           1 <1>                0.0000
     34 C34         -1.1428  -5.5237  -5.7151 C.2            1 <1>                0.0000
     35 O35         -1.4517  -6.3804  -4.9108 O.2            1 <1>                0.0000
     36 C36         -0.5169  -5.9077  -7.0039 C.2            1 <1>                0.0000
     37 C37         -0.2180  -7.2251  -7.4504 C.2            1 <1>                0.0000
     38 C38          0.3363  -7.0374  -8.6704 C.2            1 <1>                0.0000
     39 C39          0.8435  -8.1074  -9.6026 C.3            1 <1>                0.0000
     40 O40          0.3464  -5.7152  -8.8889 O.3            1 <1>                0.0000
     41 N41         -0.1329  -5.1026  -7.9632 N.2            1 <1>                0.0000
     42 C42         -2.6070   0.4849  -3.0300 C.3            1 <1>                0.0000
     43 C43         -2.1578   1.9182  -2.7389 C.3            1 <1>                0.0000
     44 C44         -2.5810   0.2390  -4.5399 C.3            1 <1>                0.0000
     45 H45          3.4823   7.9974   7.3019 H              1 <1>                0.0000
     46 H46          1.8011   8.4238   6.9017 H              1 <1>                0.0000
     47 H47          2.3216   8.3570   8.6026 H              1 <1>                0.0000
     48 H48          2.6944   5.9146   8.3925 H              1 <1>                0.0000
     49 H49          1.0133   6.3409   7.9923 H              1 <1>                0.0000
     50 H50          2.3951   4.4070   4.0859 H              1 <1>                0.0000
     51 H51          1.4047   2.0070   5.6891 H              1 <1>                0.0000
     52 H52          2.3338   2.5619   2.7763 H              1 <1>                0.0000
     53 H53          2.3988  -0.0025   4.4284 H              1 <1>                0.0000
     54 H54          2.8338   0.1033   2.7057 H              1 <1>                0.0000
     55 H55          4.1794   1.7050   4.9391 H              1 <1>                0.0000
     56 H56          5.2284  -0.3802   5.2793 H              1 <1>                0.0000
     57 H57          4.7779  -0.9766   3.6469 H              1 <1>                0.0000
     58 H58          7.0828   0.8167   4.4655 H              1 <1>                0.0000
     59 H59          7.0090  -0.3949   3.1516 H              1 <1>                0.0000
     60 H60          6.7030   1.8142   2.0303 H              1 <1>                0.0000
     61 H61         -0.1491   1.3122   3.6546 H              1 <1>                0.0000
     62 H62         -1.1325  -0.2730   1.6734 H              1 <1>                0.0000
     63 H63         -2.0429   1.8222   2.7190 H              1 <1>                0.0000
     64 H64         -1.9591   2.6125   1.1264 H              1 <1>                0.0000
     65 H65         -3.4413   0.8051   0.2053 H              1 <1>                0.0000
     66 H66         -4.6258  -0.6591   1.8182 H              1 <1>                0.0000
     67 H67         -2.8689  -0.9398   1.8715 H              1 <1>                0.0000
     68 H68         -3.6560   0.0202   3.1472 H              1 <1>                0.0000
     69 H69         -4.3862   2.9611   0.9848 H              1 <1>                0.0000
     70 H70         -5.5118   1.6189   1.3004 H              1 <1>                0.0000
     71 H71         -4.5420   2.2982   2.6293 H              1 <1>                0.0000
     72 H72         -0.3438   1.1404  -0.7572 H              1 <1>                0.0000
     73 H73         -0.6388  -0.3131  -2.6697 H              1 <1>                0.0000
     74 H74         -2.6265  -2.3708  -2.0846 H              1 <1>                0.0000
     75 H75         -1.6489  -4.5228  -3.3792 H              1 <1>                0.0000
     76 H76         -3.7958  -4.9525  -4.5433 H              1 <1>                0.0000
     77 H77         -3.9694  -3.6496  -3.3431 H              1 <1>                0.0000
     78 H78         -3.8477  -3.2544  -5.0743 H              1 <1>                0.0000
     79 H79         -1.1224  -3.5408  -6.0785 H              1 <1>                0.0000
     80 H80         -0.3927  -8.1580  -6.9351 H              1 <1>                0.0000
     81 H81          0.0357  -8.4294 -10.2598 H              1 <1>                0.0000
     82 H82          1.6624  -7.7091 -10.2017 H              1 <1>                0.0000
     83 H83          1.1992  -8.9576  -9.0206 H              1 <1>                0.0000
     84 H84         -3.6202   0.3385  -2.6555 H              1 <1>                0.0000
     85 H85         -1.1434   2.0635  -3.1105 H              1 <1>                0.0000
     86 H86         -2.8303   2.6177  -3.2354 H              1 <1>                0.0000
     87 H87         -2.1795   2.0944  -1.6635 H              1 <1>                0.0000
     88 H88         -2.9011  -0.7821  -4.7473 H              1 <1>                0.0000
     89 H89         -3.2555   0.9385  -5.0336 H              1 <1>                0.0000
     90 H90         -1.5679   0.3853  -4.9144 H              1 <1>                0.0000
@<TRIPOS>BOND
    1    1    2 1     
    2    1   45 1     
    3    1   46 1     
    4    1   47 1     
    5    2    3 1     
    6    2   48 1     
    7    2   49 1     
    8    3    4 1     
    9    4    5 2     
   10    4    6 1     
   11    6    7 2     
   12    6   50 1     
   13    7    8 1     
   14    7   51 1     
   15    8    9 1     
   16    8   16 1     
   17    8   52 1     
   18    9   10 1     
   19    9   53 1     
   20    9   54 1     
   21   10   14 1     
   22   10   11 1     
   23   10   55 1     
   24   11   12 1     
   25   11   56 1     
   26   11   57 1     
   27   12   13 1     
   28   12   58 1     
   29   12   59 1     
   30   13   14 am    
   31   13   60 1     
   32   14   15 2     
   33   16   17 am    
   34   16   61 1     
   35   17   18 2     
   36   17   19 1     
   37   19   20 1     
   38   19   24 1     
   39   19   62 1     
   40   20   21 1     
   41   20   63 1     
   42   20   64 1     
   43   21   22 1     
   44   21   23 1     
   45   21   65 1     
   46   22   66 1     
   47   22   67 1     
   48   22   68 1     
   49   23   69 1     
   50   23   70 1     
   51   23   71 1     
   52   24   25 am    
   53   24   72 1     
   54   25   26 2     
   55   25   27 1     
   56   27   28 1     
   57   27   42 1     
   58   27   73 1     
   59   28   29 am    
   60   28   74 1     
   61   29   30 2     
   62   29   31 1     
   63   31   32 1     
   64   31   33 1     
   65   31   75 1     
   66   32   76 1     
   67   32   77 1     
   68   32   78 1     
   69   33   34 am    
   70   33   79 1     
   71   34   35 2     
   72   34   36 1     
   73   36   41 2     
   74   36   37 1     
   75   37   38 2     
   76   37   80 1     
   77   38   39 1     
   78   38   40 1     
   79   39   81 1     
   80   39   82 1     
   81   39   83 1     
   82   40   41 1     
   83   42   43 1     
   84   42   44 1     
   85   42   84 1     
   86   43   85 1     
   87   43   86 1     
   88   43   87 1     
   89   44   88 1     
   90   44   89 1     
   91   44   90 1     
@<TRIPOS>SUBSTRUCTURE
      1 ****           1
@<TRIPOS>SET
DONOR_HYDROGENS      STATIC     ATOMS    <user>   **** ""
5 60 61 72 74 79
ATOM$RED        STATIC     ATOMS    COLORGROUP SYSTEM
5 60 61 72 74 79
