#       Name:                I29
#       Creating user name   gbret
#       Creation time:       Fri Sep  9 09:45:07 2016


#       File generated by GOLD software.
#

@<TRIPOS>MOLECULE
I29
    73    76     1
SMALL
NO_CHARGES


@<TRIPOS>ATOM
      1 C1           0.6025   4.8900  -1.1870 C.3            1 <1>                0.0000
      2 C2           0.8548   3.4822  -1.6620 C.2            1 <1>                0.0000
      3 N3           1.1474   3.2026  -2.8774 N.pl3          1 <1>                0.0000
      4 H4           1.2326   3.8540  -3.5911 H              1 <1>                0.0000
      5 C5           1.3354   1.7538  -3.0355 C.3            1 <1>                0.0000
      6 C6           0.3159   1.1852  -4.0245 C.3            1 <1>                0.0000
      7 C7           2.7390   1.4497  -3.4919 C.ar           1 <1>                0.0000
      8 C8           2.9944   0.3065  -4.2261 C.ar           1 <1>                0.0000
      9 C9           4.2816   0.0267  -4.6446 C.ar           1 <1>                0.0000
     10 C10          5.3146   0.8913  -4.3289 C.ar           1 <1>                0.0000
     11 Cl11         6.9315   0.5409  -4.8547 Cl             1 <1>                0.0000
     12 C12          5.0583   2.0355  -3.5945 C.ar           1 <1>                0.0000
     13 C13          3.7698   2.3168  -3.1811 C.ar           1 <1>                0.0000
     14 C14          1.0892   1.1907  -1.6212 C.3            1 <1>                0.0000
     15 C15          2.3436   0.4935  -1.0910 C.3            1 <1>                0.0000
     16 N16          0.7957   2.3971  -0.8287 N.am           1 <1>                0.0000
     17 C17          0.5102   2.4270   0.4882 C.2            1 <1>                0.0000
     18 O18          0.3170   3.4906   1.0442 O.2            1 <1>                0.0000
     19 N19          0.4391   1.2778   1.1886 N.am           1 <1>                0.0000
     20 C20          0.8578   0.0005   0.5908 C.3            1 <1>                0.0000
     21 C21         -0.2604  -1.0252   0.8038 C.3            1 <1>                0.0000
     22 N22         -0.5860  -1.1031   2.2335 N.4            1 <1>                0.0000
     23 H23          0.2500  -1.3165   2.7564 H              1 <1>                0.0000
     24 C24         -1.5808  -2.1620   2.4503 C.3            1 <1>                0.0000
     25 C25         -2.0139  -2.1621   3.9177 C.3            1 <1>                0.0000
     26 C26         -3.0500  -3.2650   4.1436 C.3            1 <1>                0.0000
     27 S27         -3.5635  -3.2652   5.8834 S.o2           1 <1>                0.0000
     28 C28         -4.7668  -4.6222   5.9188 C.3            1 <1>                0.0000
     29 O29         -2.4476  -3.6286   6.6847 O.2            1 <1>                0.0000
     30 O30         -4.2453  -2.0483   6.1543 O.2            1 <1>                0.0000
     31 C31         -1.1340   0.1797   2.6922 C.3            1 <1>                0.0000
     32 C32         -0.0537   1.2659   2.5746 C.3            1 <1>                0.0000
     33 C33         -0.0839   0.2447  -1.6214 C.ar           1 <1>                0.0000
     34 C34         -1.3363   0.6971  -1.2501 C.ar           1 <1>                0.0000
     35 C35         -2.4125  -0.1702  -1.2496 C.ar           1 <1>                0.0000
     36 C36         -2.2362  -1.4911  -1.6212 C.ar           1 <1>                0.0000
     37 Cl37        -3.5876  -2.5809  -1.6214 Cl             1 <1>                0.0000
     38 C38         -0.9826  -1.9432  -1.9931 C.ar           1 <1>                0.0000
     39 C39          0.0918  -1.0737  -1.9982 C.ar           1 <1>                0.0000
     40 H40          1.5301   5.3161  -0.8049 H              1 <1>                0.0000
     41 H41          0.2404   5.4946  -2.0185 H              1 <1>                0.0000
     42 H42         -0.1453   4.8774  -0.3941 H              1 <1>                0.0000
     43 H43          0.5129   1.5846  -5.0194 H              1 <1>                0.0000
     44 H44          0.3981   0.0985  -4.0465 H              1 <1>                0.0000
     45 H45         -0.6896   1.4673  -3.7123 H              1 <1>                0.0000
     46 H46          2.1879  -0.3684  -4.4724 H              1 <1>                0.0000
     47 H47          4.4811  -0.8668  -5.2175 H              1 <1>                0.0000
     48 H48          5.8643   2.7105  -3.3475 H              1 <1>                0.0000
     49 H49          3.5696   3.2101  -2.6081 H              1 <1>                0.0000
     50 H50          3.2263   0.9260  -1.5620 H              1 <1>                0.0000
     51 H51          2.4052   0.6282  -0.0111 H              1 <1>                0.0000
     52 H52          2.2930  -0.5706  -1.3220 H              1 <1>                0.0000
     53 H53          1.0325   0.1355  -0.4766 H              1 <1>                0.0000
     54 H54          1.7711  -0.3478   1.0732 H              1 <1>                0.0000
     55 H55         -1.1453  -0.7194   0.2456 H              1 <1>                0.0000
     56 H56          0.0711  -2.0024   0.4528 H              1 <1>                0.0000
     57 H57         -2.4482  -1.9811   1.8155 H              1 <1>                0.0000
     58 H58         -1.1430  -3.1284   2.2006 H              1 <1>                0.0000
     59 H59         -1.1465  -2.3430   4.5525 H              1 <1>                0.0000
     60 H60         -2.4517  -1.1957   4.1675 H              1 <1>                0.0000
     61 H61         -3.9174  -3.0842   3.5088 H              1 <1>                0.0000
     62 H62         -2.6122  -4.2315   3.8938 H              1 <1>                0.0000
     63 H63         -4.2785  -5.5488   5.6169 H              1 <1>                0.0000
     64 H64         -5.1612  -4.7318   6.9290 H              1 <1>                0.0000
     65 H65         -5.5837  -4.4014   5.2318 H              1 <1>                0.0000
     66 H66         -1.9924   0.4491   2.0768 H              1 <1>                0.0000
     67 H67         -1.4462   0.0903   3.7327 H              1 <1>                0.0000
     68 H68          0.7654   1.0434   3.2585 H              1 <1>                0.0000
     69 H69         -0.4836   2.2378   2.8172 H              1 <1>                0.0000
     70 H70         -1.4738   1.7283  -0.9601 H              1 <1>                0.0000
     71 H71         -3.3908   0.1832  -0.9589 H              1 <1>                0.0000
     72 H72         -0.8443  -2.9743  -2.2829 H              1 <1>                0.0000
     73 H73          1.0703  -1.4263  -2.2888 H              1 <1>                0.0000
@<TRIPOS>BOND
    1    1    2 1     
    2    1   40 1     
    3    1   41 1     
    4    1   42 1     
    5    2   16 2     
    6    2    3 1     
    7    3    4 1     
    8    3    5 1     
    9    5    6 1     
   10    5    7 1     
   11    5   14 1     
   12    6   43 1     
   13    6   44 1     
   14    6   45 1     
   15    7   13 ar    
   16    7    8 ar    
   17    8    9 ar    
   18    8   46 1     
   19    9   10 ar    
   20    9   47 1     
   21   10   11 1     
   22   10   12 ar    
   23   12   13 ar    
   24   12   48 1     
   25   13   49 1     
   26   14   15 1     
   27   14   16 1     
   28   14   33 1     
   29   15   50 1     
   30   15   51 1     
   31   15   52 1     
   32   16   17 am    
   33   17   18 2     
   34   17   19 am    
   35   19   32 1     
   36   19   20 1     
   37   20   21 1     
   38   20   53 1     
   39   20   54 1     
   40   21   22 1     
   41   21   55 1     
   42   21   56 1     
   43   22   23 1     
   44   22   24 1     
   45   22   31 1     
   46   24   25 1     
   47   24   57 1     
   48   24   58 1     
   49   25   26 1     
   50   25   59 1     
   51   25   60 1     
   52   26   27 1     
   53   26   61 1     
   54   26   62 1     
   55   27   28 1     
   56   27   29 2     
   57   27   30 2     
   58   28   63 1     
   59   28   64 1     
   60   28   65 1     
   61   31   32 1     
   62   31   66 1     
   63   31   67 1     
   64   32   68 1     
   65   32   69 1     
   66   33   39 ar    
   67   33   34 ar    
   68   34   35 ar    
   69   34   70 1     
   70   35   36 ar    
   71   35   71 1     
   72   36   37 1     
   73   36   38 ar    
   74   38   39 ar    
   75   38   72 1     
   76   39   73 1     
@<TRIPOS>SUBSTRUCTURE
      1 ****           1
@<TRIPOS>SET
DONOR_HYDROGENS      STATIC     ATOMS    <user>   **** ""
2 4 23
ATOM$RED        STATIC     ATOMS    COLORGROUP SYSTEM
2 4 23
