#       Name:                IAA
#       Creating user name   gbret
#       Creation time:       Fri Sep  9 09:49:56 2016


#       File generated by GOLD software.
#

@<TRIPOS>MOLECULE
IAA
    37    40     1
SMALL
NO_CHARGES


@<TRIPOS>ATOM
      1 O1           0.7123   5.9062  -0.2055 O.co2          1 <1>                0.0000
      2 C2           1.8568   5.4859  -0.2142 C.2            1 <1>                0.0000
      3 O3           2.7930   6.2670  -0.2204 O.co2          1 <1>                0.0000
      4 C4           2.1143   4.0011  -0.2109 C.3            1 <1>                0.0000
      5 O5           0.8745   3.3029  -0.0783 O.3            1 <1>                0.0000
      6 N6           1.0145   1.8995   0.0477 N.2            1 <1>                0.0000
      7 C7          -0.0442   1.1388   0.0776 C.2            1 <1>                0.0000
      8 C8          -1.4715   1.5495   0.0917 C.2            1 <1>                0.0000
      9 C9          -2.1047   2.7665   0.0786 C.2            1 <1>                0.0000
     10 C10         -3.5051   2.8978   0.0975 C.2            1 <1>                0.0000
     11 C11         -4.3193   1.8374   0.1292 C.2            1 <1>                0.0000
     12 C12         -3.7227   0.4472   0.1455 C.3            1 <1>                0.0000
     13 C13         -2.2109   0.3391   0.1250 C.2            1 <1>                0.0000
     14 N14         -1.4065  -0.6898   0.1321 N.2            1 <1>                0.0000
     15 C15         -0.1102  -0.3470   0.0992 C.2            1 <1>                0.0000
     16 C16          0.9752  -1.2216   0.0973 C.2            1 <1>                0.0000
     17 C17          2.4108  -0.8917   0.1809 C.2            1 <1>                0.0000
     18 O18          2.8892   0.2274   0.2673 O.2            1 <1>                0.0000
     19 N19          3.0958  -2.0468   0.1453 N.2            1 <1>                0.0000
     20 C20          2.3221  -3.0949   0.0503 C.2            1 <1>                0.0000
     21 C21          2.6191  -4.5790  -0.0217 C.3            1 <1>                0.0000
     22 C22          1.4379  -5.5184  -0.1288 C.2            1 <1>                0.0000
     23 C23          0.1995  -5.0128  -0.1555 C.2            1 <1>                0.0000
     24 C24         -0.0476  -3.6308  -0.0872 C.2            1 <1>                0.0000
     25 C25          0.9576  -2.6989   0.0176 C.2            1 <1>                0.0000
     26 H26          2.5950   3.7136  -1.1461 H              1 <1>                0.0000
     27 H27          2.7656   3.7471   0.6254 H              1 <1>                0.0000
     28 H28         -1.5020   3.6623   0.0531 H              1 <1>                0.0000
     29 H29         -3.9369   3.8877   0.0864 H              1 <1>                0.0000
     30 H30         -5.3908   1.9720   0.1434 H              1 <1>                0.0000
     31 H31         -4.0822  -0.0608   1.0405 H              1 <1>                0.0000
     32 H32         -4.1089  -0.0929  -0.7189 H              1 <1>                0.0000
     33 H33          3.2623  -4.7502  -0.8849 H              1 <1>                0.0000
     34 H34          3.1833  -4.8511   0.8704 H              1 <1>                0.0000
     35 H35          1.5928  -6.5859  -0.1836 H              1 <1>                0.0000
     36 H36         -0.6387  -5.6895  -0.2325 H              1 <1>                0.0000
     37 H37         -1.0710  -3.2867  -0.1134 H              1 <1>                0.0000
@<TRIPOS>BOND
    1    1    2 ar    
    2    2    3 ar    
    3    2    4 1     
    4    4    5 1     
    5    4   26 1     
    6    4   27 1     
    7    5    6 1     
    8    6    7 2     
    9    7   15 1     
   10    7    8 1     
   11    8   13 1     
   12    8    9 2     
   13    9   10 1     
   14    9   28 1     
   15   10   11 2     
   16   10   29 1     
   17   11   12 1     
   18   11   30 1     
   19   12   13 1     
   20   12   31 1     
   21   12   32 1     
   22   13   14 2     
   23   14   15 1     
   24   15   16 2     
   25   16   25 1     
   26   16   17 1     
   27   17   18 2     
   28   17   19 1     
   29   19   20 2     
   30   20   25 1     
   31   20   21 1     
   32   21   22 1     
   33   21   33 1     
   34   21   34 1     
   35   22   23 2     
   36   22   35 1     
   37   23   24 1     
   38   23   36 1     
   39   24   25 2     
   40   24   37 1     
@<TRIPOS>SUBSTRUCTURE
      1 ****           1
