#       Name:                ICU
#       Creating user name   gbret
#       Creation time:       Fri Sep  9 09:53:16 2016


#       File generated by GOLD software.
#

@<TRIPOS>MOLECULE
ICU
    31    31     1
SMALL
NO_CHARGES


@<TRIPOS>ATOM
      1 C1          -1.0850   3.6736  -0.4734 C.3            1 <1>                0.0000
      2 O2          -1.1309   2.2654  -0.1222 O.3            1 <1>                0.0000
      3 C3          -0.6547   1.3959  -1.0271 C.2            1 <1>                0.0000
      4 O4          -0.2139   1.7980  -2.0777 O.2            1 <1>                0.0000
      5 C5          -0.6696  -0.0820  -0.7325 C.3            1 <1>                0.0000
      6 O6          -0.2164  -0.8133  -1.9021 O.3            1 <1>                0.0000
      7 C7          -1.1532  -1.1874  -2.7877 C.2            1 <1>                0.0000
      8 C8          -0.7577  -1.9498  -4.0260 C.3            1 <1>                0.0000
      9 O9          -2.3134  -0.9130  -2.5920 O.2            1 <1>                0.0000
     10 C10          0.2472  -0.3722   0.4278 C.ar           1 <1>                0.0000
     11 C11          1.5599  -0.7294   0.1974 C.ar           1 <1>                0.0000
     12 C12          2.4050  -0.9972   1.2580 C.ar           1 <1>                0.0000
     13 C13          1.9387  -0.9082   2.5649 C.ar           1 <1>                0.0000
     14 N14          2.7975  -1.1800   3.6330 N.pl3          1 <1>                0.0000
     15 C15          0.6222  -0.5494   2.8082 C.ar           1 <1>                0.0000
     16 C16         -0.2304  -0.2741   1.7371 C.ar           1 <1>                0.0000
     17 C17         -1.6335   0.1086   1.9869 C.2            1 <1>                0.0000
     18 O18         -2.0820   0.0796   3.1242 O.co2          1 <1>                0.0000
     19 O19         -2.3477   0.4547   1.0566 O.co2          1 <1>                0.0000
     20 H20         -0.0511   3.9707  -0.6491 H              1 <1>                0.0000
     21 H21         -1.6701   3.8419  -1.3775 H              1 <1>                0.0000
     22 H22         -1.4993   4.2653   0.3429 H              1 <1>                0.0000
     23 H23         -1.6838  -0.3920  -0.4806 H              1 <1>                0.0000
     24 H24         -0.2781  -2.8856  -3.7389 H              1 <1>                0.0000
     25 H25         -1.6462  -2.1643  -4.6199 H              1 <1>                0.0000
     26 H26         -0.0629  -1.3511  -4.6149 H              1 <1>                0.0000
     27 H27          1.9284  -0.8003  -0.8153 H              1 <1>                0.0000
     28 H28          3.4312  -1.2769   1.0709 H              1 <1>                0.0000
     29 H29          3.7189  -1.4307   3.4628 H              1 <1>                0.0000
     30 H30          2.4722  -1.1179   4.5447 H              1 <1>                0.0000
     31 H31          0.2582  -0.4794   3.8226 H              1 <1>                0.0000
@<TRIPOS>BOND
    1    1    2 1     
    2    1   20 1     
    3    1   21 1     
    4    1   22 1     
    5    2    3 1     
    6    3    4 2     
    7    3    5 1     
    8    5    6 1     
    9    5   10 1     
   10    5   23 1     
   11    6    7 1     
   12    7    8 1     
   13    7    9 2     
   14    8   24 1     
   15    8   25 1     
   16    8   26 1     
   17   10   16 ar    
   18   10   11 ar    
   19   11   12 ar    
   20   11   27 1     
   21   12   13 ar    
   22   12   28 1     
   23   13   14 1     
   24   13   15 ar    
   25   14   29 1     
   26   14   30 1     
   27   15   16 ar    
   28   15   31 1     
   29   16   17 1     
   30   17   18 ar    
   31   17   19 ar    
@<TRIPOS>SUBSTRUCTURE
      1 ****           1
@<TRIPOS>SET
DONOR_HYDROGENS      STATIC     ATOMS    <user>   **** ""
2 29 30
ATOM$RED        STATIC     ATOMS    COLORGROUP SYSTEM
2 29 30
