@<TRIPOS>MOLECULE
IG
  36   38    0    0    0
SMALL
NO_CHARGES


@<TRIPOS>ATOM
   1 N1            -0.0165     1.3637     0.0095 N.pl3   
   2 C2             0.0021    -0.0041     0.0020 C.2     
   3 N3            -1.1607    -0.7184     0.0035 N.am    
   4 H4            -2.0119    -0.2532     0.0104 H       
   5 C5            -1.1343    -2.0629    -0.0048 C.2     
   6 O6            -2.1895    -2.6768    -0.0036 O.2     
   7 N7             0.0064    -2.7414    -0.0147 N.2     
   8 C8             1.1776    -2.1116    -0.0164 C.2     
   9 N9             2.4841    -2.5198    -0.0253 N.pl3   
  10 C10            3.2662    -1.3990    -0.0219 C.2     
  11 N11            2.5199    -0.3352    -0.0114 N.2     
  12 C12            1.2117    -0.7026    -0.0133 C.2     
  13 C13            2.9579    -3.9060    -0.0361 C.3     
  14 O14            4.3191    -3.9684    -0.5148 O.3     
  15 C15            4.8355    -5.2272    -0.0305 C.3     
  16 C16            6.3652    -5.2041    -0.0131 C.3     
  17 O17            6.8558    -5.1299    -1.3532 O.3     
  18 P18            8.4248    -5.0875    -1.7115 P.3     
  19 O19            9.0942    -6.4386    -1.2863 O.co2   
  20 O20            8.6028    -4.8792    -3.2540 O.co2   
  21 O21            9.1042    -3.9035    -0.9428 O.co2   
  22 C22            4.2832    -5.3537     1.4067 C.3     
  23 O23            5.2356    -4.8662     2.3538 O.3     
  24 C24            3.0196    -4.4645     1.4028 C.3     
  25 O25            3.1530    -3.4007     2.3475 O.3     
  26 H26            0.8169     1.8601     0.0042 H       
  27 H27           -0.8630     1.8372     0.0161 H       
  28 H28            4.3462    -1.3976    -0.0267 H       
  29 H29            2.3075    -4.5238    -0.6554 H       
  30 H30            4.4761    -6.0485    -0.6505 H       
  31 H31            6.7091    -4.3355     0.5484 H       
  32 H32            6.7369    -6.1130     0.4601 H       
  33 H33            4.0233    -6.3893     1.6262 H       
  34 H34            4.9403    -4.9219     3.2729 H       
  35 H35            2.1328    -5.0601     1.6197 H       
  36 H36            3.2564    -3.6975     3.2621 H       
@<TRIPOS>BOND
   1    1    2 1
   2    1   26 1
   3    1   27 1
   4    2   12 2
   5    2    3 1
   6    3    4 1
   7    3    5 am
   8    5    6 2
   9    5    7 1
  10    7    8 2
  11    8   12 1
  12    8    9 1
  13    9   10 1
  14    9   13 1
  15   10   11 2
  16   10   28 1
  17   11   12 1
  18   13   24 1
  19   13   14 1
  20   13   29 1
  21   14   15 1
  22   15   16 1
  23   15   22 1
  24   15   30 1
  25   16   17 1
  26   16   31 1
  27   16   32 1
  28   17   18 1
  29   18   19 ar
  30   18   20 ar
  31   18   21 ar
  32   22   23 1
  33   22   24 1
  34   22   33 1
  35   23   34 1
  36   24   25 1
  37   24   35 1
  38   25   36 1





