#       Name:                IH2
#       Creating user name   gbret
#       Creation time:       Fri Sep  9 09:57:39 2016


#       File generated by GOLD software.
#

@<TRIPOS>MOLECULE
IH2
    76    80     1
SMALL
NO_CHARGES


@<TRIPOS>ATOM
      1 C1          -0.0060   4.1619   1.1767 C.3            1 <1>                0.0000
      2 C2          -0.0383   2.6558   1.1353 C.2            1 <1>                0.0000
      3 C3          -0.1549   2.0598  -0.0208 C.2            1 <1>                0.0000
      4 C4          -0.1951   0.5544  -0.1539 C.3            1 <1>                0.0000
      5 C5           1.2078   0.0105  -0.2382 C.2            1 <1>                0.0000
      6 O6           1.6042  -0.7766   0.5950 O.2            1 <1>                0.0000
      7 N7           2.0220   0.3987  -1.2396 N.am           1 <1>                0.0000
      8 C8           3.3858  -0.1300  -1.3216 C.3            1 <1>                0.0000
      9 C9           4.0915   0.4663  -2.5412 C.3            1 <1>                0.0000
     10 C10          4.2533   1.9756  -2.3494 C.3            1 <1>                0.0000
     11 C11          4.9590   2.5719  -3.5689 C.3            1 <1>                0.0000
     12 C12          6.3376   1.9271  -3.7264 C.3            1 <1>                0.0000
     13 C13          6.1757   0.4178  -3.9182 C.3            1 <1>                0.0000
     14 C14          5.4700  -0.1785  -2.6986 C.3            1 <1>                0.0000
     15 C15          7.0326   2.5145  -4.9276 C.2            1 <1>                0.0000
     16 N16          8.3526   2.5095  -4.9953 N.pl3          1 <1>                0.0000
     17 N17          6.3223   3.0346  -5.9134 N.pl3          1 <1>                0.0000
     18 H18          5.3536   3.0383  -5.8637 H              1 <1>                0.0000
     19 H19          6.7697   3.4128  -6.6865 H              1 <1>                0.0000
     20 N20         -0.8637   0.0240   1.0378 N.am           1 <1>                0.0000
     21 N21         -0.7372   0.6705   2.2917 N.am           1 <1>                0.0000
     22 C22          0.0716   1.8882   2.4332 C.3            1 <1>                0.0000
     23 C23         -1.4467  -0.0342   3.1716 C.2            1 <1>                0.0000
     24 O24         -1.5719   0.2198   4.3536 O.2            1 <1>                0.0000
     25 N25         -2.0027  -1.0809   2.5222 N.am           1 <1>                0.0000
     26 C26         -2.8604  -2.0991   3.1336 C.3            1 <1>                0.0000
     27 C27         -4.3212  -1.6520   3.0508 C.3            1 <1>                0.0000
     28 C28         -4.7459  -1.5881   1.6063 C.ar           1 <1>                0.0000
     29 C29         -4.5916  -2.6937   0.7910 C.ar           1 <1>                0.0000
     30 C30         -4.9811  -2.6351  -0.5341 C.ar           1 <1>                0.0000
     31 C31         -5.5253  -1.4710  -1.0437 C.ar           1 <1>                0.0000
     32 C32         -5.6804  -0.3657  -0.2281 C.ar           1 <1>                0.0000
     33 C33         -5.2949  -0.4257   1.0980 C.ar           1 <1>                0.0000
     34 C34         -5.1909  -2.6383   3.7869 C.ar           1 <1>                0.0000
     35 C35         -5.0882  -3.9894   3.5129 C.ar           1 <1>                0.0000
     36 C36         -5.8859  -4.8941   4.1881 C.ar           1 <1>                0.0000
     37 C37         -6.7861  -4.4479   5.1376 C.ar           1 <1>                0.0000
     38 C38         -6.8882  -3.0969   5.4122 C.ar           1 <1>                0.0000
     39 C39         -6.0874  -2.1926   4.7400 C.ar           1 <1>                0.0000
     40 C40         -1.6434  -1.0403   1.2200 C.2            1 <1>                0.0000
     41 O41         -1.9745  -1.8369   0.3638 O.2            1 <1>                0.0000
     42 H42          1.0246   4.5058   1.0886 H              1 <1>                0.0000
     43 H43         -0.5940   4.5608   0.3500 H              1 <1>                0.0000
     44 H44         -0.4252   4.5085   2.1212 H              1 <1>                0.0000
     45 H45         -0.2255   2.6637  -0.9134 H              1 <1>                0.0000
     46 H46         -0.7539   0.2766  -1.0475 H              1 <1>                0.0000
     47 H47          1.7050   1.0282  -1.9061 H              1 <1>                0.0000
     48 H48          3.9339   0.1370  -0.4181 H              1 <1>                0.0000
     49 H49          3.3496  -1.2152  -1.4174 H              1 <1>                0.0000
     50 H50          3.4968   0.2753  -3.4345 H              1 <1>                0.0000
     51 H51          3.2713   2.4350  -2.2372 H              1 <1>                0.0000
     52 H52          4.8480   2.1666  -1.4561 H              1 <1>                0.0000
     53 H53          4.3644   2.3809  -4.4622 H              1 <1>                0.0000
     54 H54          5.0743   3.6472  -3.4323 H              1 <1>                0.0000
     55 H55          6.9322   2.1181  -2.8331 H              1 <1>                0.0000
     56 H56          5.5811   0.2268  -4.8115 H              1 <1>                0.0000
     57 H57          7.1578  -0.0415  -4.0304 H              1 <1>                0.0000
     58 H58          6.0646   0.0125  -1.8053 H              1 <1>                0.0000
     59 H59          5.3547  -1.2537  -2.8353 H              1 <1>                0.0000
     60 H60          8.8739   2.1278  -4.2718 H              1 <1>                0.0000
     61 H61          8.8000   2.8875  -5.7685 H              1 <1>                0.0000
     62 H62          1.1107   1.6220   2.6266 H              1 <1>                0.0000
     63 H63         -0.3143   2.4958   3.2517 H              1 <1>                0.0000
     64 H64         -2.7387  -3.0432   2.6027 H              1 <1>                0.0000
     65 H65         -2.5795  -2.2310   4.1785 H              1 <1>                0.0000
     66 H66         -4.4258  -0.6663   3.5042 H              1 <1>                0.0000
     67 H67         -4.1664  -3.6031   1.1891 H              1 <1>                0.0000
     68 H68         -4.8599  -3.4986  -1.1713 H              1 <1>                0.0000
     69 H69         -5.8290  -1.4250  -2.0791 H              1 <1>                0.0000
     70 H70         -6.1053   0.5438  -0.6264 H              1 <1>                0.0000
     71 H71         -5.4161   0.4378   1.7352 H              1 <1>                0.0000
     72 H72         -4.3849  -4.3380   2.7712 H              1 <1>                0.0000
     73 H73         -5.8062  -5.9496   3.9736 H              1 <1>                0.0000
     74 H74         -7.4099  -5.1547   5.6646 H              1 <1>                0.0000
     75 H75         -7.5917  -2.7483   6.1537 H              1 <1>                0.0000
     76 H76         -6.1672  -1.1371   4.9546 H              1 <1>                0.0000
@<TRIPOS>BOND
    1    1    2 1     
    2    1   42 1     
    3    1   43 1     
    4    1   44 1     
    5    2   22 1     
    6    2    3 2     
    7    3    4 1     
    8    3   45 1     
    9    4    5 1     
   10    4   20 1     
   11    4   46 1     
   12    5    6 2     
   13    5    7 am    
   14    7    8 1     
   15    7   47 1     
   16    8    9 1     
   17    8   48 1     
   18    8   49 1     
   19    9   14 1     
   20    9   10 1     
   21    9   50 1     
   22   10   11 1     
   23   10   51 1     
   24   10   52 1     
   25   11   12 1     
   26   11   53 1     
   27   11   54 1     
   28   12   13 1     
   29   12   15 1     
   30   12   55 1     
   31   13   14 1     
   32   13   56 1     
   33   13   57 1     
   34   14   58 1     
   35   14   59 1     
   36   15   16 2     
   37   15   17 1     
   38   16   60 1     
   39   16   61 1     
   40   17   18 1     
   41   17   19 1     
   42   20   40 am    
   43   20   21 1     
   44   21   22 1     
   45   21   23 am    
   46   22   62 1     
   47   22   63 1     
   48   23   24 2     
   49   23   25 am    
   50   25   26 1     
   51   25   40 am    
   52   26   27 1     
   53   26   64 1     
   54   26   65 1     
   55   27   28 1     
   56   27   34 1     
   57   27   66 1     
   58   28   33 ar    
   59   28   29 ar    
   60   29   30 ar    
   61   29   67 1     
   62   30   31 ar    
   63   30   68 1     
   64   31   32 ar    
   65   31   69 1     
   66   32   33 ar    
   67   32   70 1     
   68   33   71 1     
   69   34   39 ar    
   70   34   35 ar    
   71   35   36 ar    
   72   35   72 1     
   73   36   37 ar    
   74   36   73 1     
   75   37   38 ar    
   76   37   74 1     
   77   38   39 ar    
   78   38   75 1     
   79   39   76 1     
   80   40   41 2     
@<TRIPOS>SUBSTRUCTURE
      1 ****           1
@<TRIPOS>SET
DONOR_HYDROGENS      STATIC     ATOMS    <user>   **** ""
5 47 60 61 18 19
ATOM$RED        STATIC     ATOMS    COLORGROUP SYSTEM
5 47 60 61 18 19
