#       Name:                IM3
#       Creating user name   gbret
#       Creation time:       Fri Sep  9 10:02:41 2016


#       File generated by GOLD software.
#

@<TRIPOS>MOLECULE
IM3
    22    22     1
SMALL
NO_CHARGES


@<TRIPOS>ATOM
      1 O1          -0.6536   3.9392  -0.1078 O.3            1 <1>                0.0000
      2 C2          -0.6351   2.5794  -0.1153 C.ar           1 <1>                0.0000
      3 C3          -0.6314   1.8917  -1.3182 C.ar           1 <1>                0.0000
      4 C4          -0.6121   0.5094  -1.3241 C.ar           1 <1>                0.0000
      5 C5          -0.5971  -0.1898  -0.1315 C.ar           1 <1>                0.0000
      6 C6          -0.5766  -1.6966  -0.1436 C.3            1 <1>                0.0000
      7 C7           0.8509  -2.1796  -0.1543 C.2            1 <1>                0.0000
      8 N8           1.8126  -1.3344  -0.1521 N.2            1 <1>                0.0000
      9 C9           1.1415  -3.6334  -0.1673 C.2            1 <1>                0.0000
     10 O10          2.2989  -4.0250  -0.1759 O.co2          1 <1>                0.0000
     11 O11          0.2237  -4.4399  -0.1693 O.co2          1 <1>                0.0000
     12 C12         -0.6003   0.4902   1.0720 C.ar           1 <1>                0.0000
     13 C13         -0.6142   1.8757   1.0850 C.ar           1 <1>                0.0000
     14 O14         -0.6169   2.5462   2.2681 O.3            1 <1>                0.0000
     15 H15          0.2244   4.3445  -0.1140 H              1 <1>                0.0000
     16 H16         -0.6438   2.4355  -2.2513 H              1 <1>                0.0000
     17 H17         -0.6092  -0.0255  -2.2624 H              1 <1>                0.0000
     18 H18         -1.0812  -2.0740   0.7458 H              1 <1>                0.0000
     19 H19         -1.0897  -2.0598  -1.0341 H              1 <1>                0.0000
     20 H20          1.6223  -0.3833  -0.1436 H              1 <1>                0.0000
     21 H21         -0.5881  -0.0584   2.0023 H              1 <1>                0.0000
     22 H22          0.2657   2.7491   2.6073 H              1 <1>                0.0000
@<TRIPOS>BOND
    1    1    2 1     
    2    1   15 1     
    3    2   13 ar    
    4    2    3 ar    
    5    3    4 ar    
    6    3   16 1     
    7    4    5 ar    
    8    4   17 1     
    9    5    6 1     
   10    5   12 ar    
   11    6    7 1     
   12    6   18 1     
   13    6   19 1     
   14    7    8 2     
   15    7    9 1     
   16    8   20 1     
   17    9   10 ar    
   18    9   11 ar    
   19   12   13 ar    
   20   12   21 1     
   21   13   14 1     
   22   14   22 1     
@<TRIPOS>SUBSTRUCTURE
      1 ****           1
@<TRIPOS>SET
DONOR_HYDROGENS      STATIC     ATOMS    <user>   **** ""
3 15 20 22
ATOM$RED        STATIC     ATOMS    COLORGROUP SYSTEM
3 15 20 22
