#       Name:                IQD
#       Creating user name   gbret
#       Creation time:       Fri Sep  9 10:11:26 2016


#       File generated by GOLD software.
#

@<TRIPOS>MOLECULE
IQD
    19    20     1
SMALL
NO_CHARGES


@<TRIPOS>ATOM
      1 O1          -0.0863   2.4590  -1.0642 O.3            1 <1>                0.0000
      2 C2          -0.0678   1.1000  -1.0717 C.ar           1 <1>                0.0000
      3 C3          -0.0640   0.4060  -2.2778 C.ar           1 <1>                0.0000
      4 C4          -0.0452  -0.9765  -2.2857 C.ar           1 <1>                0.0000
      5 C5          -0.0296  -1.6845  -1.0999 C.ar           1 <1>                0.0000
      6 C6          -0.0328  -0.9986   0.1131 C.ar           1 <1>                0.0000
      7 C7          -0.0160  -1.7154   1.4029 C.2            1 <1>                0.0000
      8 O8           0.0006  -2.9312   1.4022 O.2            1 <1>                0.0000
      9 N9          -0.0180  -1.0655   2.5750 N.2            1 <1>                0.0000
     10 C10         -0.0349   0.2198   2.6885 C.2            1 <1>                0.0000
     11 C11         -0.0546   1.0963   1.4550 C.3            1 <1>                0.0000
     12 C12         -0.0471   0.4004   0.1142 C.ar           1 <1>                0.0000
     13 H13          0.7917   2.8643  -1.0704 H              1 <1>                0.0000
     14 H14         -0.0761   0.9493  -3.2112 H              1 <1>                0.0000
     15 H15         -0.0431  -1.5069  -3.2265 H              1 <1>                0.0000
     16 H16         -0.0153  -2.7643  -1.1127 H              1 <1>                0.0000
     17 H17         -0.0354   0.6725   3.6691 H              1 <1>                0.0000
     18 H18         -0.9433   1.7254   1.5049 H              1 <1>                0.0000
     19 H19          0.8167   1.7500   1.4944 H              1 <1>                0.0000
@<TRIPOS>BOND
    1    1    2 1     
    2    1   13 1     
    3    2   12 ar    
    4    2    3 ar    
    5    3    4 ar    
    6    3   14 1     
    7    4    5 ar    
    8    4   15 1     
    9    5    6 ar    
   10    5   16 1     
   11    6   12 ar    
   12    6    7 1     
   13    7    8 2     
   14    7    9 1     
   15    9   10 2     
   16   10   11 1     
   17   10   17 1     
   18   11   12 1     
   19   11   18 1     
   20   11   19 1     
@<TRIPOS>SUBSTRUCTURE
      1 ****           1
@<TRIPOS>SET
DONOR_HYDROGENS      STATIC     ATOMS    <user>   **** ""
1 13
ATOM$RED        STATIC     ATOMS    COLORGROUP SYSTEM
1 13
