#       Name:                IRB
#       Creating user name   gbret
#       Creation time:       Fri Sep  9 10:12:28 2016


#       File generated by GOLD software.
#

@<TRIPOS>MOLECULE
IRB
    34    37     1
SMALL
NO_CHARGES


@<TRIPOS>ATOM
      1 O1           1.6230   3.5954   0.0009 O.3            1 <1>                0.0000
      2 N2           1.6422   2.1795  -0.0069 N.2            1 <1>                0.0000
      3 C3           0.5204   1.5114   0.0002 C.2            1 <1>                0.0000
      4 C4           0.3470   0.0426   0.0000 C.2            1 <1>                0.0000
      5 N5          -0.9988  -0.2128   0.0099 N.pl3          1 <1>                0.0000
      6 C6          -1.7306   0.9615   0.0167 C.ar           1 <1>                0.0000
      7 C7          -3.1084   1.1840   0.0269 C.ar           1 <1>                0.0000
      8 C8          -3.6051   2.4652   0.0311 C.ar           1 <1>                0.0000
      9 C9          -2.7356   3.5636   0.0257 C.ar           1 <1>                0.0000
     10 C10         -1.3544   3.3538   0.0159 C.ar           1 <1>                0.0000
     11 C11         -0.8573   2.0599   0.0168 C.ar           1 <1>                0.0000
     12 C12         -3.2751   4.9335   0.0298 C.2            1 <1>                0.0000
     13 O13         -4.4850   5.1144   0.0380 O.co2          1 <1>                0.0000
     14 O14         -2.5135   5.8909   0.0250 O.co2          1 <1>                0.0000
     15 C15          1.3619  -0.9036  -0.0093 C.2            1 <1>                0.0000
     16 C16          2.8096  -0.6598  -0.0144 C.2            1 <1>                0.0000
     17 O17          3.3516   0.4313  -0.0114 O.2            1 <1>                0.0000
     18 N18          3.4323  -1.8506  -0.0225 N.am           1 <1>                0.0000
     19 C19          2.5197  -2.8985  -0.0233 C.ar           1 <1>                0.0000
     20 C20          1.2190  -2.3753  -0.0098 C.ar           1 <1>                0.0000
     21 C21          0.1185  -3.2271  -0.0085 C.ar           1 <1>                0.0000
     22 C22          0.3108  -4.5938  -0.0206 C.ar           1 <1>                0.0000
     23 C23          1.5937  -5.1149  -0.0335 C.ar           1 <1>                0.0000
     24 C24          2.6931  -4.2785  -0.0303 C.ar           1 <1>                0.0000
     25 Br25         4.4364  -5.0109  -0.0482 Br             1 <1>                0.0000
     26 H26          2.5009   4.0007  -0.0053 H              1 <1>                0.0000
     27 H27         -1.3881  -1.1013   0.0117 H              1 <1>                0.0000
     28 H28         -3.7879   0.3446   0.0312 H              1 <1>                0.0000
     29 H29         -4.6730   2.6265   0.0383 H              1 <1>                0.0000
     30 H30         -0.6775   4.1953   0.0113 H              1 <1>                0.0000
     31 H31          4.3957  -1.9642  -0.0274 H              1 <1>                0.0000
     32 H32         -0.8819  -2.8203   0.0024 H              1 <1>                0.0000
     33 H33         -0.5409  -5.2580  -0.0196 H              1 <1>                0.0000
     34 H34          1.7362  -6.1854  -0.0423 H              1 <1>                0.0000
@<TRIPOS>BOND
    1    1    2 1     
    2    1   26 1     
    3    2    3 2     
    4    3   11 1     
    5    3    4 1     
    6    4    5 1     
    7    4   15 2     
    8    5    6 1     
    9    5   27 1     
   10    6   11 ar    
   11    6    7 ar    
   12    7    8 ar    
   13    7   28 1     
   14    8    9 ar    
   15    8   29 1     
   16    9   10 ar    
   17    9   12 1     
   18   10   11 ar    
   19   10   30 1     
   20   12   13 ar    
   21   12   14 ar    
   22   15   20 1     
   23   15   16 1     
   24   16   17 2     
   25   16   18 am    
   26   18   19 1     
   27   18   31 1     
   28   19   24 ar    
   29   19   20 ar    
   30   20   21 ar    
   31   21   22 ar    
   32   21   32 1     
   33   22   23 ar    
   34   22   33 1     
   35   23   24 ar    
   36   23   34 1     
   37   24   25 1     
@<TRIPOS>SUBSTRUCTURE
      1 ****           1
@<TRIPOS>SET
DONOR_HYDROGENS      STATIC     ATOMS    <user>   **** ""
3 26 27 31
ATOM$RED        STATIC     ATOMS    COLORGROUP SYSTEM
3 26 27 31
