#       Name:                IRP
#       Creating user name   gbret
#       Creation time:       Fri Sep  9 10:13:04 2016


#       File generated by GOLD software.
#

@<TRIPOS>MOLECULE
IRP
    37    39     1
SMALL
NO_CHARGES


@<TRIPOS>ATOM
      1 O1           0.4914   2.1211   2.1039 O.3            1 <1>                0.0000
      2 C2           0.5108   0.6922   2.0960 C.3            1 <1>                0.0000
      3 C3          -0.9206   0.1187   1.9484 C.3            1 <1>                0.0000
      4 C4          -1.9188   0.9681   2.7377 C.3            1 <1>                0.0000
      5 O5          -1.7941   2.3366   2.3460 O.3            1 <1>                0.0000
      6 P6          -2.6937   3.5143   2.9753 P.3            1 <1>                0.0000
      7 O7          -2.3592   3.6700   4.4979 O.co2          1 <1>                0.0000
      8 O8          -2.3867   4.8594   2.2330 O.co2          1 <1>                0.0000
      9 O9          -4.2103   3.1595   2.8074 O.co2          1 <1>                0.0000
     10 N10         -1.2108   0.1957   0.5008 N.4            1 <1>                0.0000
     11 H11         -1.7586  -0.6042   0.2212 H              1 <1>                0.0000
     12 H12         -1.7202   1.0435   0.3013 H              1 <1>                0.0000
     13 C13          0.0672   0.2034  -0.2345 C.3            1 <1>                0.0000
     14 C14          1.1982   0.1528   0.8141 C.3            1 <1>                0.0000
     15 O15          2.2831   0.9991   0.4283 O.3            1 <1>                0.0000
     16 C16          0.1481  -1.0026  -1.1345 C.2            1 <1>                0.0000
     17 C17         -0.5782  -2.1328  -1.0153 C.2            1 <1>                0.0000
     18 N18         -0.2333  -2.9998  -2.0064 N.pl3          1 <1>                0.0000
     19 H19         -0.6113  -3.8829  -2.1411 H              1 <1>                0.0000
     20 C20          0.7391  -2.4176  -2.7856 C.2            1 <1>                0.0000
     21 C21          0.9930  -1.1478  -2.2555 C.2            1 <1>                0.0000
     22 N22          1.9212  -0.3552  -2.8429 N.2            1 <1>                0.0000
     23 C23          2.5789  -0.7576  -3.8914 C.2            1 <1>                0.0000
     24 N24          2.3730  -1.9793  -4.4482 N.am           1 <1>                0.0000
     25 H25          2.8830  -2.2435  -5.2299 H              1 <1>                0.0000
     26 C26          1.4610  -2.8280  -3.9252 C.2            1 <1>                0.0000
     27 O27          1.2729  -3.9259  -4.4218 O.2            1 <1>                0.0000
     28 H28          1.3693   2.5264   2.0977 H              1 <1>                0.0000
     29 H29          0.9966   0.3055   2.9918 H              1 <1>                0.0000
     30 H30         -0.9516  -0.9164   2.2888 H              1 <1>                0.0000
     31 H31         -2.9320   0.6223   2.5328 H              1 <1>                0.0000
     32 H32         -1.7118   0.8750   3.8039 H              1 <1>                0.0000
     33 H33          0.1497   1.1158  -0.8251 H              1 <1>                0.0000
     34 H34          1.5408  -0.8713   0.9623 H              1 <1>                0.0000
     35 H35          3.0204   1.0033   1.0540 H              1 <1>                0.0000
     36 H36         -1.3186  -2.3208  -0.2519 H              1 <1>                0.0000
     37 H37          3.3116  -0.0986  -4.3333 H              1 <1>                0.0000
@<TRIPOS>BOND
    1    1    2 1     
    2    1   28 1     
    3    2   14 1     
    4    2    3 1     
    5    2   29 1     
    6    3    4 1     
    7    3   10 1     
    8    3   30 1     
    9    4    5 1     
   10    4   31 1     
   11    4   32 1     
   12    5    6 1     
   13    6    7 ar    
   14    6    8 ar    
   15    6    9 ar    
   16   10   11 1     
   17   10   12 1     
   18   10   13 1     
   19   13   14 1     
   20   13   16 1     
   21   13   33 1     
   22   14   15 1     
   23   14   34 1     
   24   15   35 1     
   25   16   21 1     
   26   16   17 2     
   27   17   18 1     
   28   17   36 1     
   29   18   19 1     
   30   18   20 1     
   31   20   26 1     
   32   20   21 2     
   33   21   22 1     
   34   22   23 2     
   35   23   24 1     
   36   23   37 1     
   37   24   25 1     
   38   24   26 am    
   39   26   27 2     
@<TRIPOS>SUBSTRUCTURE
      1 ****           1
@<TRIPOS>SET
DONOR_HYDROGENS      STATIC     ATOMS    <user>   **** ""
6 28 11 12 35 19 25
ATOM$RED        STATIC     ATOMS    COLORGROUP SYSTEM
6 28 11 12 35 19 25
