#       Name:                IVA
#       Creating user name   gbret
#       Creation time:       Fri Sep  9 10:16:33 2016


#       File generated by GOLD software.
#

@<TRIPOS>MOLECULE
IVA
    16    15     1
SMALL
NO_CHARGES


@<TRIPOS>ATOM
      1 C1           0.3343   1.7622  -0.2822 C.3            1 <1>                0.0000
      2 C2           0.3551   0.2323  -0.2906 C.3            1 <1>                0.0000
      3 C3           1.0951  -0.2745   0.9489 C.3            1 <1>                0.0000
      4 C4          -1.0803  -0.2972  -0.2797 C.3            1 <1>                0.0000
      5 C5          -1.0629  -1.7984  -0.4118 C.2            1 <1>                0.0000
      6 O6          -0.0009  -2.3898  -0.5059 O.co2          1 <1>                0.0000
      7 O7          -2.1109  -2.4214  -0.4245 O.co2          1 <1>                0.0000
      8 H8           1.3569   2.1395  -0.2899 H              1 <1>                0.0000
      9 H9          -0.1929   2.1232  -1.1652 H              1 <1>                0.0000
     10 H10         -0.1759   2.1137   0.6146 H              1 <1>                0.0000
     11 H11          0.8653  -0.1192  -1.1874 H              1 <1>                0.0000
     12 H12          1.1098  -1.3644   0.9430 H              1 <1>                0.0000
     13 H13          2.1177   0.1028   0.9412 H              1 <1>                0.0000
     14 H14          0.5849   0.0770   1.8457 H              1 <1>                0.0000
     15 H15         -1.5626  -0.0206   0.6578 H              1 <1>                0.0000
     16 H16         -1.6332   0.1345  -1.1140 H              1 <1>                0.0000
@<TRIPOS>BOND
    1    1    2 1     
    2    1    8 1     
    3    1    9 1     
    4    1   10 1     
    5    2    3 1     
    6    2    4 1     
    7    2   11 1     
    8    3   12 1     
    9    3   13 1     
   10    3   14 1     
   11    4    5 1     
   12    4   15 1     
   13    4   16 1     
   14    5    6 ar    
   15    5    7 ar    
@<TRIPOS>SUBSTRUCTURE
      1 ****           1
