#       Name:                IXW
#       Creating user name   gbret
#       Creation time:       Fri Sep  9 10:19:19 2016


#       File generated by GOLD software.
#

@<TRIPOS>MOLECULE
IXW
    19    19     1
SMALL
NO_CHARGES


@<TRIPOS>ATOM
      1 C1          -0.9190   3.2054   1.5798 C.3            1 <1>                0.0000
      2 C2          -0.8982   1.6755   1.5714 C.3            1 <1>                0.0000
      3 O3          -0.2186   1.2073   0.3768 O.3            1 <1>                0.0000
      4 C4          -0.1141  -0.1213   0.2163 C.2            1 <1>                0.0000
      5 O5          -0.5752  -0.8682   1.0466 O.2            1 <1>                0.0000
      6 C6           0.5784  -0.6813  -0.9994 C.3            1 <1>                0.0000
      7 C7           0.5598  -2.2099  -0.9380 C.3            1 <1>                0.0000
      8 C8           1.1666  -2.9781  -2.1139 C.3            1 <1>                0.0000
      9 O9           1.8141  -2.8879  -0.8432 O.3            1 <1>                0.0000
     10 H10          0.1036   3.5827   1.5721 H              1 <1>                0.0000
     11 H11         -1.4462   3.5664   0.6968 H              1 <1>                0.0000
     12 H12         -1.4292   3.5569   2.4766 H              1 <1>                0.0000
     13 H13         -0.3710   1.3145   2.4545 H              1 <1>                0.0000
     14 H14         -1.9208   1.2982   1.5792 H              1 <1>                0.0000
     15 H15          0.0606  -0.3474  -1.8985 H              1 <1>                0.0000
     16 H16          1.6104  -0.3312  -1.0232 H              1 <1>                0.0000
     17 H17         -0.2965  -2.6524  -0.4290 H              1 <1>                0.0000
     18 H18          0.7130  -3.9310  -2.3863 H              1 <1>                0.0000
     19 H19          1.5828  -2.3990  -2.9383 H              1 <1>                0.0000
@<TRIPOS>BOND
    1    1    2 1     
    2    1   10 1     
    3    1   11 1     
    4    1   12 1     
    5    2    3 1     
    6    2   13 1     
    7    2   14 1     
    8    3    4 1     
    9    4    5 2     
   10    4    6 1     
   11    6    7 1     
   12    6   15 1     
   13    6   16 1     
   14    7    9 1     
   15    7    8 1     
   16    7   17 1     
   17    8    9 1     
   18    8   18 1     
   19    8   19 1     
@<TRIPOS>SUBSTRUCTURE
      1 ****           1
