#       Name:                IXY
#       Creating user name   gbret
#       Creation time:       Fri Sep  9 10:19:27 2016


#       File generated by GOLD software.
#

@<TRIPOS>MOLECULE
IXY
    66    70     1
SMALL
NO_CHARGES


@<TRIPOS>ATOM
      1 O1           0.3143  -2.4000   0.4576 O.2            1 <1>                0.0000
      2 C2           0.2978  -1.1873   0.4643 C.2            1 <1>                0.0000
      3 C3           1.5925  -0.4161   0.4561 C.3            1 <1>                0.0000
      4 N4           2.7219  -1.3554   0.4402 N.4            1 <1>                0.0000
      5 H5           2.6842  -1.9406   1.2614 H              1 <1>                0.0000
      6 H6           2.6684  -1.9317  -0.3862 H              1 <1>                0.0000
      7 C7           3.9839  -0.6037   0.4322 C.3            1 <1>                0.0000
      8 C8           5.1602  -1.5820   0.4157 C.3            1 <1>                0.0000
      9 C9           6.4549  -0.8108   0.4075 C.2            1 <1>                0.0000
     10 C10          7.1757  -0.4721  -0.6731 C.2            1 <1>                0.0000
     11 N11          8.2896   0.2247  -0.2910 N.pl3          1 <1>                0.0000
     12 H12          8.9624   0.5750  -0.8957 H              1 <1>                0.0000
     13 C13          8.3132   0.3548   1.0795 C.ar           1 <1>                0.0000
     14 C14          9.1971   0.9567   1.9694 C.ar           1 <1>                0.0000
     15 C15          8.9394   0.9166   3.3220 C.ar           1 <1>                0.0000
     16 C16          7.8050   0.2809   3.8082 C.ar           1 <1>                0.0000
     17 C17          6.9236  -0.3166   2.9521 C.ar           1 <1>                0.0000
     18 C18          7.1622  -0.2830   1.5767 C.ar           1 <1>                0.0000
     19 N19         -0.8784  -0.5293   0.4734 N.am           1 <1>                0.0000
     20 C20         -2.0697  -1.2389   0.4752 C.2            1 <1>                0.0000
     21 S21         -2.1844  -2.9375   0.4739 S.3            1 <1>                0.0000
     22 C22         -3.9400  -2.9028   0.4772 C.2            1 <1>                0.0000
     23 C23         -4.8321  -4.1294   0.4769 C.3            1 <1>                0.0000
     24 C24         -6.2443  -3.7109   0.8951 C.3            1 <1>                0.0000
     25 C25         -6.6769  -2.5047   0.0563 C.3            1 <1>                0.0000
     26 C26         -5.8664  -1.2788   0.4831 C.3            1 <1>                0.0000
     27 C27         -4.3902  -1.6427   0.4796 C.2            1 <1>                0.0000
     28 C28         -3.3125  -0.6704   0.4842 C.2            1 <1>                0.0000
     29 C29         -3.5353   0.7788   0.4924 C.2            1 <1>                0.0000
     30 O30         -3.6270   1.3744   1.5499 O.2            1 <1>                0.0000
     31 N31         -3.6386   1.4513  -0.6709 N.am           1 <1>                0.0000
     32 C32         -3.8611   2.8993  -0.6627 C.3            1 <1>                0.0000
     33 C33         -3.9385   3.4037  -2.0807 C.ar           1 <1>                0.0000
     34 C34         -2.7899   3.8116  -2.7329 C.ar           1 <1>                0.0000
     35 C35         -2.8609   4.2743  -4.0335 C.ar           1 <1>                0.0000
     36 C36         -4.0804   4.3286  -4.6822 C.ar           1 <1>                0.0000
     37 C37         -5.2289   3.9199  -4.0304 C.ar           1 <1>                0.0000
     38 C38         -5.1573   3.4532  -2.7312 C.ar           1 <1>                0.0000
     39 H39          1.6333   0.2160  -0.4310 H              1 <1>                0.0000
     40 H40          1.6503   0.2065   1.3489 H              1 <1>                0.0000
     41 H41          4.0247   0.0285  -0.4548 H              1 <1>                0.0000
     42 H42          4.0417   0.0189   1.3250 H              1 <1>                0.0000
     43 H43          5.1194  -2.2141   1.3028 H              1 <1>                0.0000
     44 H44          5.1024  -2.2046  -0.4771 H              1 <1>                0.0000
     45 H45          6.9154  -0.7144  -1.6929 H              1 <1>                0.0000
     46 H46         10.0825   1.4534   1.6010 H              1 <1>                0.0000
     47 H47          9.6270   1.3841   4.0112 H              1 <1>                0.0000
     48 H48          7.6179   0.2582   4.8716 H              1 <1>                0.0000
     49 H49          6.0432  -0.8093   3.3375 H              1 <1>                0.0000
     50 H50         -0.8915   0.4405   0.4788 H              1 <1>                0.0000
     51 H51         -4.8600  -4.5608  -0.5237 H              1 <1>                0.0000
     52 H52         -4.4442  -4.8635   1.1831 H              1 <1>                0.0000
     53 H53         -6.9343  -4.5379   0.7276 H              1 <1>                0.0000
     54 H54         -6.2467  -3.4404   1.9510 H              1 <1>                0.0000
     55 H55         -6.4966  -2.7112  -0.9987 H              1 <1>                0.0000
     56 H56         -7.7382  -2.3128   0.2145 H              1 <1>                0.0000
     57 H57         -6.0431  -0.4621  -0.2168 H              1 <1>                0.0000
     58 H58         -6.1653  -0.9743   1.4861 H              1 <1>                0.0000
     59 H59         -3.5655   0.9766  -1.5137 H              1 <1>                0.0000
     60 H60         -4.7956   3.1203  -0.1470 H              1 <1>                0.0000
     61 H61         -3.0363   3.3908  -0.1468 H              1 <1>                0.0000
     62 H62         -1.8372   3.7691  -2.2260 H              1 <1>                0.0000
     63 H63         -1.9637   4.5936  -4.5428 H              1 <1>                0.0000
     64 H64         -4.1360   4.6908  -5.6982 H              1 <1>                0.0000
     65 H65         -6.1817   3.9626  -4.5371 H              1 <1>                0.0000
     66 H66         -6.0545   3.1338  -2.2219 H              1 <1>                0.0000
@<TRIPOS>BOND
    1    1    2 2     
    2    2    3 1     
    3    2   19 am    
    4    3    4 1     
    5    3   39 1     
    6    3   40 1     
    7    4    5 1     
    8    4    6 1     
    9    4    7 1     
   10    7    8 1     
   11    7   41 1     
   12    7   42 1     
   13    8    9 1     
   14    8   43 1     
   15    8   44 1     
   16    9   18 1     
   17    9   10 2     
   18   10   11 1     
   19   10   45 1     
   20   11   12 1     
   21   11   13 1     
   22   13   18 ar    
   23   13   14 ar    
   24   14   15 ar    
   25   14   46 1     
   26   15   16 ar    
   27   15   47 1     
   28   16   17 ar    
   29   16   48 1     
   30   17   18 ar    
   31   17   49 1     
   32   19   20 1     
   33   19   50 1     
   34   20   28 2     
   35   20   21 1     
   36   21   22 1     
   37   22   27 2     
   38   22   23 1     
   39   23   24 1     
   40   23   51 1     
   41   23   52 1     
   42   24   25 1     
   43   24   53 1     
   44   24   54 1     
   45   25   26 1     
   46   25   55 1     
   47   25   56 1     
   48   26   27 1     
   49   26   57 1     
   50   26   58 1     
   51   27   28 1     
   52   28   29 1     
   53   29   30 2     
   54   29   31 am    
   55   31   32 1     
   56   31   59 1     
   57   32   33 1     
   58   32   60 1     
   59   32   61 1     
   60   33   38 ar    
   61   33   34 ar    
   62   34   35 ar    
   63   34   62 1     
   64   35   36 ar    
   65   35   63 1     
   66   36   37 ar    
   67   36   64 1     
   68   37   38 ar    
   69   37   65 1     
   70   38   66 1     
@<TRIPOS>SUBSTRUCTURE
      1 ****           1
@<TRIPOS>SET
DONOR_HYDROGENS      STATIC     ATOMS    <user>   **** ""
5 5 6 12 50 59
ATOM$RED        STATIC     ATOMS    COLORGROUP SYSTEM
5 5 6 12 50 59
