#       Name:                J30
#       Creating user name   gbret
#       Creation time:       Fri Sep  9 10:23:01 2016


#       File generated by GOLD software.
#

@<TRIPOS>MOLECULE
J30
    48    50     1
SMALL
NO_CHARGES


@<TRIPOS>ATOM
      1 S1           3.3285   7.6185   0.0036 S.3            1 <1>                0.0000
      2 C2           3.4347   5.8115   0.1215 C.3            1 <1>                0.0000
      3 C3           2.0246   5.2203   0.1773 C.3            1 <1>                0.0000
      4 C4           2.1142   3.6962   0.2767 C.3            1 <1>                0.0000
      5 C5           0.7253   3.1139   0.3317 C.2            1 <1>                0.0000
      6 O6          -0.2410   3.8458   0.2950 O.2            1 <1>                0.0000
      7 N7           0.5570   1.7797   0.4216 N.am           1 <1>                0.0000
      8 C8           1.7144   0.8731   0.4738 C.3            1 <1>                0.0000
      9 C9           1.5168  -0.2276  -0.5737 C.3            1 <1>                0.0000
     10 N10          0.2221  -0.8844  -0.3538 N.4            1 <1>                0.0000
     11 H11          0.1777  -1.2288   0.5936 H              1 <1>                0.0000
     12 C12          0.0804  -2.0086  -1.2887 C.3            1 <1>                0.0000
     13 C13         -1.2781  -2.6377  -1.1156 C.ar           1 <1>                0.0000
     14 C14         -2.2544  -2.4227  -2.0395 C.ar           1 <1>                0.0000
     15 C15         -3.5161  -2.9962  -1.8967 C.ar           1 <1>                0.0000
     16 C16         -3.8094  -3.7878  -0.8288 C.ar           1 <1>                0.0000
     17 C17         -2.8271  -4.0327   0.1455 C.ar           1 <1>                0.0000
     18 C18         -3.0924  -4.8450   1.2614 C.ar           1 <1>                0.0000
     19 C19         -2.1162  -5.0602   2.1848 C.ar           1 <1>                0.0000
     20 C20         -0.8540  -4.4864   2.0420 C.ar           1 <1>                0.0000
     21 C21         -0.5611  -3.6942   0.9749 C.ar           1 <1>                0.0000
     22 C22         -1.5417  -3.4539  -0.0028 C.ar           1 <1>                0.0000
     23 C23         -0.8686   0.0731  -0.5764 C.3            1 <1>                0.0000
     24 C24         -0.7892   1.1891   0.4767 C.3            1 <1>                0.0000
     25 H25          4.6190   7.9955  -0.0366 H              1 <1>                0.0000
     26 H26          3.9583   5.4206  -0.7510 H              1 <1>                0.0000
     27 H27          3.9795   5.5377   1.0250 H              1 <1>                0.0000
     28 H28          1.5011   5.6112   1.0498 H              1 <1>                0.0000
     29 H29          1.4798   5.4941  -0.7262 H              1 <1>                0.0000
     30 H30          2.6378   3.3053  -0.5958 H              1 <1>                0.0000
     31 H31          2.6590   3.4224   1.1802 H              1 <1>                0.0000
     32 H32          2.6256   1.4293   0.2533 H              1 <1>                0.0000
     33 H33          1.7854   0.4265   1.4655 H              1 <1>                0.0000
     34 H34          1.5367   0.2119  -1.5710 H              1 <1>                0.0000
     35 H35          2.3170  -0.9623  -0.4842 H              1 <1>                0.0000
     36 H36          0.1853  -1.6462  -2.3113 H              1 <1>                0.0000
     37 H37          0.8528  -2.7502  -1.0850 H              1 <1>                0.0000
     38 H38         -2.0479  -1.7979  -2.8960 H              1 <1>                0.0000
     39 H39         -4.2730  -2.8095  -2.6442 H              1 <1>                0.0000
     40 H40         -4.7920  -4.2251  -0.7308 H              1 <1>                0.0000
     41 H41         -4.0660  -5.2957   1.3856 H              1 <1>                0.0000
     42 H42         -2.3226  -5.6847   3.0414 H              1 <1>                0.0000
     43 H43         -0.0973  -4.6730   2.7896 H              1 <1>                0.0000
     44 H44          0.4212  -3.2560   0.8777 H              1 <1>                0.0000
     45 H45         -0.7766   0.5035  -1.5735 H              1 <1>                0.0000
     46 H46         -1.8263  -0.4401  -0.4888 H              1 <1>                0.0000
     47 H47         -0.9719   0.7719   1.4670 H              1 <1>                0.0000
     48 H48         -1.5327   1.9548   0.2557 H              1 <1>                0.0000
@<TRIPOS>BOND
    1    1    2 1     
    2    1   25 1     
    3    2    3 1     
    4    2   26 1     
    5    2   27 1     
    6    3    4 1     
    7    3   28 1     
    8    3   29 1     
    9    4    5 1     
   10    4   30 1     
   11    4   31 1     
   12    5    6 2     
   13    5    7 am    
   14    7   24 1     
   15    7    8 1     
   16    8    9 1     
   17    8   32 1     
   18    8   33 1     
   19    9   10 1     
   20    9   34 1     
   21    9   35 1     
   22   10   11 1     
   23   10   12 1     
   24   10   23 1     
   25   12   13 1     
   26   12   36 1     
   27   12   37 1     
   28   13   22 ar    
   29   13   14 ar    
   30   14   15 ar    
   31   14   38 1     
   32   15   16 ar    
   33   15   39 1     
   34   16   17 ar    
   35   16   40 1     
   36   17   22 ar    
   37   17   18 ar    
   38   18   19 ar    
   39   18   41 1     
   40   19   20 ar    
   41   19   42 1     
   42   20   21 ar    
   43   20   43 1     
   44   21   22 ar    
   45   21   44 1     
   46   23   24 1     
   47   23   45 1     
   48   23   46 1     
   49   24   47 1     
   50   24   48 1     
@<TRIPOS>SUBSTRUCTURE
      1 ****           1
@<TRIPOS>SET
DONOR_HYDROGENS      STATIC     ATOMS    <user>   **** ""
1 11
ATOM$RED        STATIC     ATOMS    COLORGROUP SYSTEM
1 11
