#       Name:                J94
#       Creating user name   gbret
#       Creation time:       Fri Sep  9 10:26:03 2016


#       File generated by GOLD software.
#

@<TRIPOS>MOLECULE
J94
    48    53     1
SMALL
NO_CHARGES


@<TRIPOS>ATOM
      1 C1          -0.5562   1.4608  -0.8907 C.3            1 <1>                0.0000
      2 N2          -0.4988   0.0516  -1.3013 N.4            1 <1>                0.0000
      3 C3          -1.8255  -0.5599  -1.1471 C.3            1 <1>                0.0000
      4 C4          -0.0752  -0.0346  -2.7073 C.3            1 <1>                0.0000
      5 C5           1.1442   0.8667  -2.9049 C.3            1 <1>                0.0000
      6 C6           2.1829   0.5573  -1.8568 C.ar           1 <1>                0.0000
      7 C7           3.4803   1.0040  -2.0568 C.ar           1 <1>                0.0000
      8 C8           4.4623   0.7430  -1.1179 C.ar           1 <1>                0.0000
      9 O9           5.7880   1.0651  -1.0769 O.3            1 <1>                0.0000
     10 C10          6.1824   0.8958   0.2975 C.3            1 <1>                0.0000
     11 O11          5.2676  -0.0980   0.7961 O.3            1 <1>                0.0000
     12 C12          4.1421   0.0274   0.0338 C.ar           1 <1>                0.0000
     13 C13          2.8464  -0.4162   0.2270 C.ar           1 <1>                0.0000
     14 C14          1.8653  -0.1527  -0.7181 C.ar           1 <1>                0.0000
     15 C15          0.4708  -0.6634  -0.4666 C.3            1 <1>                0.0000
     16 C16          0.1167  -0.4580   1.0076 C.3            1 <1>                0.0000
     17 O17          0.0658   0.9620   1.3155 O.3            1 <1>                0.0000
     18 C18         -1.1716   1.2754   1.7351 C.2            1 <1>                0.0000
     19 O19         -1.5316   2.3874   2.0674 O.2            1 <1>                0.0000
     20 C20         -2.0283   0.0796   1.7340 C.ar           1 <1>                0.0000
     21 C21         -1.2606  -1.0039   1.2900 C.ar           1 <1>                0.0000
     22 C22         -1.8168  -2.2555   1.1917 C.ar           1 <1>                0.0000
     23 C23         -3.1459  -2.4566   1.5320 C.ar           1 <1>                0.0000
     24 C24         -3.9221  -1.3985   1.9735 C.ar           1 <1>                0.0000
     25 O25         -5.2299  -1.3383   2.3620 O.3            1 <1>                0.0000
     26 C26         -5.3574  -0.1028   3.0904 C.3            1 <1>                0.0000
     27 O27         -4.3277   0.7325   2.5291 O.3            1 <1>                0.0000
     28 C28         -3.3701  -0.1236   2.0764 C.ar           1 <1>                0.0000
     29 H29          0.4111   1.7619  -0.4886 H              1 <1>                0.0000
     30 H30         -0.8000   2.0810  -1.7533 H              1 <1>                0.0000
     31 H31         -1.3225   1.5854  -0.1255 H              1 <1>                0.0000
     32 H32         -2.4379  -0.3234  -2.0173 H              1 <1>                0.0000
     33 H33         -1.7194  -1.6413  -1.0606 H              1 <1>                0.0000
     34 H34         -2.3037  -0.1688  -0.2491 H              1 <1>                0.0000
     35 H35          0.1883  -1.0646  -2.9478 H              1 <1>                0.0000
     36 H36         -0.8859   0.2992  -3.3550 H              1 <1>                0.0000
     37 H37          1.5659   0.6940  -3.8952 H              1 <1>                0.0000
     38 H38          0.8414   1.9102  -2.8180 H              1 <1>                0.0000
     39 H39          3.7257   1.5584  -2.9505 H              1 <1>                0.0000
     40 H40          7.2096   0.5363   0.3598 H              1 <1>                0.0000
     41 H41          6.0689   1.8306   0.8464 H              1 <1>                0.0000
     42 H42          2.5966  -0.9709   1.1193 H              1 <1>                0.0000
     43 H43          0.4302  -1.7272  -0.7005 H              1 <1>                0.0000
     44 H44          0.8526  -0.9530   1.6413 H              1 <1>                0.0000
     45 H45         -1.2174  -3.0856   0.8479 H              1 <1>                0.0000
     46 H46         -3.5776  -3.4434   1.4527 H              1 <1>                0.0000
     47 H47         -6.3404   0.3387   2.9266 H              1 <1>                0.0000
     48 H48         -5.1817  -0.2651   4.1538 H              1 <1>                0.0000
@<TRIPOS>BOND
    1    1    2 1     
    2    1   29 1     
    3    1   30 1     
    4    1   31 1     
    5    2   15 1     
    6    2    3 1     
    7    2    4 1     
    8    3   32 1     
    9    3   33 1     
   10    3   34 1     
   11    4    5 1     
   12    4   35 1     
   13    4   36 1     
   14    5    6 1     
   15    5   37 1     
   16    5   38 1     
   17    6   14 ar    
   18    6    7 ar    
   19    7    8 ar    
   20    7   39 1     
   21    8   12 ar    
   22    8    9 1     
   23    9   10 1     
   24   10   11 1     
   25   10   40 1     
   26   10   41 1     
   27   11   12 1     
   28   12   13 ar    
   29   13   14 ar    
   30   13   42 1     
   31   14   15 1     
   32   15   16 1     
   33   15   43 1     
   34   16   21 1     
   35   16   17 1     
   36   16   44 1     
   37   17   18 1     
   38   18   19 2     
   39   18   20 1     
   40   20   28 ar    
   41   20   21 ar    
   42   21   22 ar    
   43   22   23 ar    
   44   22   45 1     
   45   23   24 ar    
   46   23   46 1     
   47   24   28 ar    
   48   24   25 1     
   49   25   26 1     
   50   26   27 1     
   51   26   47 1     
   52   26   48 1     
   53   27   28 1     
@<TRIPOS>SUBSTRUCTURE
      1 ****           1
