#       Name:                JAI
#       Creating user name   gbret
#       Creation time:       Fri Sep  9 10:26:56 2016


#       File generated by GOLD software.
#

@<TRIPOS>MOLECULE
JAI
    51    51     1
SMALL
NO_CHARGES


@<TRIPOS>ATOM
      1 C1          -2.2191   4.8068  -5.1923 C.3            1 <1>                0.0000
      2 C2          -2.1983   3.2769  -5.2007 C.3            1 <1>                0.0000
      3 C3          -1.4695   2.7777  -3.9798 C.2            1 <1>                0.0000
      4 C4          -2.0548   1.9334  -3.1671 C.2            1 <1>                0.0000
      5 C5          -1.3260   1.4342  -1.9462 C.3            1 <1>                0.0000
      6 C6          -2.1693   1.7111  -0.7000 C.3            1 <1>                0.0000
      7 C7          -1.4792   1.1184   0.5461 C.3            1 <1>                0.0000
      8 C8          -0.5120   0.0026   0.1453 C.3            1 <1>                0.0000
      9 C9           0.0548  -0.6401   1.3849 C.2            1 <1>                0.0000
     10 O10         -0.2816  -0.2447   2.4810 O.2            1 <1>                0.0000
     11 N11          0.9356  -1.6543   1.2755 N.am           1 <1>                0.0000
     12 C12          1.4866  -2.2792   2.4806 C.3            1 <1>                0.0000
     13 C13          1.9210  -3.7107   2.1597 C.3            1 <1>                0.0000
     14 C14          3.0750  -3.6806   1.1556 C.3            1 <1>                0.0000
     15 C15          2.3803  -4.4042   3.4438 C.3            1 <1>                0.0000
     16 C16          2.6962  -5.8714   3.1461 C.3            1 <1>                0.0000
     17 C17          2.6773  -1.4878   2.9571 C.2            1 <1>                0.0000
     18 O18          3.0327  -0.4940   2.3467 O.co2          1 <1>                0.0000
     19 O19          3.2853  -1.8414   3.9531 O.co2          1 <1>                0.0000
     20 C20         -0.7057   2.3203   1.1454 C.3            1 <1>                0.0000
     21 C21         -1.6769   3.4994   0.8898 C.3            1 <1>                0.0000
     22 C22         -2.2808   3.2041  -0.4717 C.2            1 <1>                0.0000
     23 O23         -2.7607   4.0104  -1.2318 O.2            1 <1>                0.0000
     24 H24         -1.1965   5.1841  -5.2000 H              1 <1>                0.0000
     25 H25         -2.7463   5.1678  -6.0753 H              1 <1>                0.0000
     26 H26         -2.7293   5.1583  -4.2955 H              1 <1>                0.0000
     27 H27         -3.2209   2.8996  -5.1929 H              1 <1>                0.0000
     28 H28         -1.6881   2.9254  -6.0975 H              1 <1>                0.0000
     29 H29         -0.4645   3.1160  -3.7749 H              1 <1>                0.0000
     30 H30         -3.0598   1.5951  -3.3720 H              1 <1>                0.0000
     31 H31         -1.1551   0.3616  -2.0383 H              1 <1>                0.0000
     32 H32         -0.3689   1.9484  -1.8588 H              1 <1>                0.0000
     33 H33         -3.1622   1.2772  -0.8184 H              1 <1>                0.0000
     34 H34         -2.2201   0.7458   1.2534 H              1 <1>                0.0000
     35 H35         -1.0442  -0.7462  -0.4413 H              1 <1>                0.0000
     36 H36          0.2992   0.4214  -0.4502 H              1 <1>                0.0000
     37 H37          1.2047  -1.9706   0.3989 H              1 <1>                0.0000
     38 H38          0.7260  -2.2966   3.2611 H              1 <1>                0.0000
     39 H39          1.0811  -4.2579   1.7317 H              1 <1>                0.0000
     40 H40          2.7478  -3.1865   0.2408 H              1 <1>                0.0000
     41 H41          3.9149  -3.1333   1.5836 H              1 <1>                0.0000
     42 H42          3.3845  -4.7004   0.9270 H              1 <1>                0.0000
     43 H43          3.2744  -3.9100   3.8239 H              1 <1>                0.0000
     44 H44          1.5884  -4.3474   4.1907 H              1 <1>                0.0000
     45 H45          1.8022  -6.3657   2.7660 H              1 <1>                0.0000
     46 H46          3.4881  -5.9282   2.3993 H              1 <1>                0.0000
     47 H47          3.0234  -6.3655   4.0609 H              1 <1>                0.0000
     48 H48         -0.5387   2.1801   2.2134 H              1 <1>                0.0000
     49 H49          0.2376   2.4744   0.6214 H              1 <1>                0.0000
     50 H50         -2.4541   3.5249   1.6536 H              1 <1>                0.0000
     51 H51         -1.1323   4.4434   0.8681 H              1 <1>                0.0000
@<TRIPOS>BOND
    1    1    2 1     
    2    1   24 1     
    3    1   25 1     
    4    1   26 1     
    5    2    3 1     
    6    2   27 1     
    7    2   28 1     
    8    3    4 2     
    9    3   29 1     
   10    4    5 1     
   11    4   30 1     
   12    5    6 1     
   13    5   31 1     
   14    5   32 1     
   15    6   22 1     
   16    6    7 1     
   17    6   33 1     
   18    7    8 1     
   19    7   20 1     
   20    7   34 1     
   21    8    9 1     
   22    8   35 1     
   23    8   36 1     
   24    9   10 2     
   25    9   11 am    
   26   11   12 1     
   27   11   37 1     
   28   12   13 1     
   29   12   17 1     
   30   12   38 1     
   31   13   14 1     
   32   13   15 1     
   33   13   39 1     
   34   14   40 1     
   35   14   41 1     
   36   14   42 1     
   37   15   16 1     
   38   15   43 1     
   39   15   44 1     
   40   16   45 1     
   41   16   46 1     
   42   16   47 1     
   43   17   18 ar    
   44   17   19 ar    
   45   20   21 1     
   46   20   48 1     
   47   20   49 1     
   48   21   22 1     
   49   21   50 1     
   50   21   51 1     
   51   22   23 2     
@<TRIPOS>SUBSTRUCTURE
      1 ****           1
@<TRIPOS>SET
DONOR_HYDROGENS      STATIC     ATOMS    <user>   **** ""
1 37
ATOM$RED        STATIC     ATOMS    COLORGROUP SYSTEM
1 37
