#       Name:                JAS
#       Creating user name   gbret
#       Creation time:       Fri Sep  9 10:27:18 2016


#       File generated by GOLD software.
#

@<TRIPOS>MOLECULE
JAS
   126   129     1
SMALL
NO_CHARGES


@<TRIPOS>ATOM
      1 C1           5.1778   2.2206   9.1417 C.3            1 <1>                0.0000
      2 O2           5.3261   1.7673   7.7947 O.3            1 <1>                0.0000
      3 C3           4.2359   2.1180   6.9400 C.3            1 <1>                0.0000
      4 C4           4.7707   2.4766   5.5521 C.3            1 <1>                0.0000
      5 C5           5.6190   3.7186   5.6462 C.2            1 <1>                0.0000
      6 C6           6.8508   3.7057   5.2005 C.2            1 <1>                0.0000
      7 N7           7.6378   4.8578   5.2877 N.4            1 <1>                0.0000
      8 H8           7.1035   5.5985   5.7166 H              1 <1>                0.0000
      9 C9           8.8278   4.5775   6.1022 C.3            1 <1>                0.0000
     10 C10          8.0528   5.2705   3.9403 C.3            1 <1>                0.0000
     11 O11          8.7584   6.5107   4.0182 O.3            1 <1>                0.0000
     12 C12          3.2755   0.9324   6.8259 C.3            1 <1>                0.0000
     13 C13          2.7878   0.5351   8.2206 C.3            1 <1>                0.0000
     14 C14          2.0956   1.3220   5.9732 C.2            1 <1>                0.0000
     15 O15          1.7511   2.4778   5.9107 O.2            1 <1>                0.0000
     16 C16          1.3456   0.2693   5.1983 C.3            1 <1>                0.0000
     17 C17          0.2022   0.9254   4.4218 C.3            1 <1>                0.0000
     18 C18         -0.5592  -0.1434   3.6351 C.3            1 <1>                0.0000
     19 C19         -1.2344  -1.1101   4.6101 C.3            1 <1>                0.0000
     20 C20         -1.6226   0.5264   2.7625 C.3            1 <1>                0.0000
     21 C21         -2.3841  -0.5423   1.9758 C.3            1 <1>                0.0000
     22 C22         -3.1087   0.1112   0.7974 C.3            1 <1>                0.0000
     23 O23         -2.1348   0.5597  -0.1802 O.3            1 <1>                0.0000
     24 C24         -1.7014   1.8250  -0.0842 C.2            1 <1>                0.0000
     25 O25         -2.1257   2.5418   0.7910 O.2            1 <1>                0.0000
     26 C26         -0.6868   2.3563  -1.0637 C.3            1 <1>                0.0000
     27 C27         -1.2684   2.3190  -2.4775 C.3            1 <1>                0.0000
     28 O28         -2.1697   3.4144  -2.6498 O.3            1 <1>                0.0000
     29 C29         -0.1384   2.4237  -3.5028 C.3            1 <1>                0.0000
     30 C30         -0.6524   1.9873  -4.8771 C.3            1 <1>                0.0000
     31 O31         -1.0088   3.1414  -5.6407 O.3            1 <1>                0.0000
     32 C32          0.4427   1.2101  -5.6093 C.3            1 <1>                0.0000
     33 C33         -0.1273   0.5706  -6.8489 C.2            1 <1>                0.0000
     34 O34         -0.4619   1.2580  -7.7837 O.2            1 <1>                0.0000
     35 C35         -0.2794  -0.9265  -6.9220 C.3            1 <1>                0.0000
     36 C36         -1.6020  -1.3357  -6.2708 C.3            1 <1>                0.0000
     37 C37         -0.2711  -1.3788  -8.3841 C.3            1 <1>                0.0000
     38 O38          1.0768  -1.4571  -8.8523 O.3            1 <1>                0.0000
     39 C39          1.2224  -1.1986 -10.2502 C.3            1 <1>                0.0000
     40 C40         -0.9196  -2.7371  -8.4847 C.2            1 <1>                0.0000
     41 C41         -0.9001  -3.5576  -9.5481 C.2            1 <1>                0.0000
     42 O42         -1.5986  -4.6639  -9.2135 O.3            1 <1>                0.0000
     43 C43         -2.0337  -4.5071  -7.9548 C.2            1 <1>                0.0000
     44 N44         -1.6235  -3.3383  -7.5130 N.2            1 <1>                0.0000
     45 C45         -2.8359  -5.4649  -7.1658 C.2            1 <1>                0.0000
     46 C46         -3.2839  -6.6864  -7.5505 C.2            1 <1>                0.0000
     47 O47         -3.9711  -7.2034  -6.5107 O.3            1 <1>                0.0000
     48 C48         -3.9408  -6.3108  -5.5108 C.2            1 <1>                0.0000
     49 N49         -3.2560  -5.2596  -5.8954 N.2            1 <1>                0.0000
     50 C50         -4.5609  -6.4468  -4.1759 C.2            1 <1>                0.0000
     51 C51         -5.2652  -7.5020  -3.6946 C.2            1 <1>                0.0000
     52 O52         -5.6330  -7.1919  -2.4353 O.3            1 <1>                0.0000
     53 C53         -5.1604  -5.9659  -2.1560 C.2            1 <1>                0.0000
     54 C54         -5.3273  -5.2301  -0.8899 C.2            1 <1>                0.0000
     55 C55         -4.7979  -4.0137  -0.7806 C.2            1 <1>                0.0000
     56 C56         -4.9428  -3.2199   0.4897 C.3            1 <1>                0.0000
     57 C57         -3.7279  -2.3074   0.6678 C.3            1 <1>                0.0000
     58 C58         -4.0519  -0.9058   0.1517 C.3            1 <1>                0.0000
     59 C59         -5.4984  -0.5546   0.5056 C.3            1 <1>                0.0000
     60 N60         -4.5134  -5.5088  -3.2028 N.2            1 <1>                0.0000
     61 O61         -2.5352   1.2474   3.5928 O.3            1 <1>                0.0000
     62 C62         -2.9658   2.4923   3.0390 C.3            1 <1>                0.0000
     63 H63          5.1887   3.3104   9.1617 H              1 <1>                0.0000
     64 H64          4.2316   1.8593   9.5446 H              1 <1>                0.0000
     65 H65          6.0000   1.8379   9.7465 H              1 <1>                0.0000
     66 H66          3.7074   2.9747   7.3583 H              1 <1>                0.0000
     67 H67          5.3739   1.6525   5.1712 H              1 <1>                0.0000
     68 H68          3.9349   2.6578   4.8763 H              1 <1>                0.0000
     69 H69          5.2115   4.6193   6.0809 H              1 <1>                0.0000
     70 H70          7.2584   2.8050   4.7657 H              1 <1>                0.0000
     71 H71          8.5198   4.2713   7.1020 H              1 <1>                0.0000
     72 H72          9.4050   3.7774   5.6389 H              1 <1>                0.0000
     73 H73          9.4414   5.4758   6.1703 H              1 <1>                0.0000
     74 H74          8.7036   4.5086   3.5113 H              1 <1>                0.0000
     75 H75          7.1718   5.3926   3.3102 H              1 <1>                0.0000
     76 H76          9.0631   6.8442   3.1632 H              1 <1>                0.0000
     77 H77          3.7922   0.0891   6.3677 H              1 <1>                0.0000
     78 H78          2.3186   1.3943   8.6999 H              1 <1>                0.0000
     79 H79          2.0625  -0.2741   8.1350 H              1 <1>                0.0000
     80 H80          3.6347   0.2020   8.8204 H              1 <1>                0.0000
     81 H81          2.0245  -0.2208   4.5004 H              1 <1>                0.0000
     82 H82          0.9389  -0.4694   5.8890 H              1 <1>                0.0000
     83 H83         -0.4767   1.4155   5.1197 H              1 <1>                0.0000
     84 H84          0.6089   1.6641   3.7312 H              1 <1>                0.0000
     85 H85          0.1369  -0.6933   3.0018 H              1 <1>                0.0000
     86 H86         -1.7769  -1.8715   4.0497 H              1 <1>                0.0000
     87 H87         -0.4768  -1.5872   5.2318 H              1 <1>                0.0000
     88 H88         -1.9305  -0.5601   5.2434 H              1 <1>                0.0000
     89 H89         -1.1416   1.2151   2.0679 H              1 <1>                0.0000
     90 H90         -1.6820  -1.2878   1.6024 H              1 <1>                0.0000
     91 H91         -3.1124  -1.0239   2.6284 H              1 <1>                0.0000
     92 H92         -3.6846   0.9652   1.1538 H              1 <1>                0.0000
     93 H93         -0.4338   3.3839  -0.8024 H              1 <1>                0.0000
     94 H94          0.2120   1.7408  -1.0247 H              1 <1>                0.0000
     95 H95         -1.8047   1.3815  -2.6244 H              1 <1>                0.0000
     96 H96         -2.9153   3.4109  -2.0340 H              1 <1>                0.0000
     97 H97          0.2092   3.4554  -3.5560 H              1 <1>                0.0000
     98 H98          0.6863   1.7778  -3.2016 H              1 <1>                0.0000
     99 H99         -1.5278   1.3501  -4.7519 H              1 <1>                0.0000
    100 H100        -1.3436   2.9398  -6.5252 H              1 <1>                0.0000
    101 H101         1.2453   1.8922  -5.8897 H              1 <1>                0.0000
    102 H102         0.8391   0.4363  -4.9519 H              1 <1>                0.0000
    103 H103         0.5470  -1.4008  -6.3926 H              1 <1>                0.0000
    104 H104        -2.4092  -1.2414  -6.9972 H              1 <1>                0.0000
    105 H105        -1.5361  -2.3700  -5.9330 H              1 <1>                0.0000
    106 H106        -1.8031  -0.6872  -5.4181 H              1 <1>                0.0000
    107 H107        -0.8264  -0.6629  -8.9901 H              1 <1>                0.0000
    108 H108         2.2738  -1.2772 -10.5266 H              1 <1>                0.0000
    109 H109         0.6423  -1.9270 -10.8167 H              1 <1>                0.0000
    110 H110         0.8622  -0.1944 -10.4734 H              1 <1>                0.0000
    111 H111        -0.4160  -3.3678 -10.4947 H              1 <1>                0.0000
    112 H112        -3.1214  -7.1564  -8.5091 H              1 <1>                0.0000
    113 H113        -5.4893  -8.4177  -4.2214 H              1 <1>                0.0000
    114 H114        -5.8697  -5.6698  -0.0659 H              1 <1>                0.0000
    115 H115        -4.2570  -3.5910  -1.6144 H              1 <1>                0.0000
    116 H116        -5.8472  -2.6137   0.4375 H              1 <1>                0.0000
    117 H117        -5.0119  -3.9015   1.3375 H              1 <1>                0.0000
    118 H118        -3.4676  -2.2528   1.7248 H              1 <1>                0.0000
    119 H119        -2.8849  -2.7131   0.1085 H              1 <1>                0.0000
    120 H120        -3.9271  -0.8799  -0.9308 H              1 <1>                0.0000
    121 H121        -5.6726  -0.7544   1.5628 H              1 <1>                0.0000
    122 H122        -5.6763   0.5012   0.3012 H              1 <1>                0.0000
    123 H123        -6.1768  -1.1603  -0.0953 H              1 <1>                0.0000
    124 H124        -2.0955   3.0844   2.7558 H              1 <1>                0.0000
    125 H125        -3.5801   2.3051   2.1582 H              1 <1>                0.0000
    126 H126        -3.5502   3.0371   3.7804 H              1 <1>                0.0000
@<TRIPOS>BOND
    1    1    2 1     
    2    1   63 1     
    3    1   64 1     
    4    1   65 1     
    5    2    3 1     
    6    3    4 1     
    7    3   12 1     
    8    3   66 1     
    9    4    5 1     
   10    4   67 1     
   11    4   68 1     
   12    5    6 2     
   13    5   69 1     
   14    6    7 1     
   15    6   70 1     
   16    7    8 1     
   17    7    9 1     
   18    7   10 1     
   19    9   71 1     
   20    9   72 1     
   21    9   73 1     
   22   10   11 1     
   23   10   74 1     
   24   10   75 1     
   25   11   76 1     
   26   12   13 1     
   27   12   14 1     
   28   12   77 1     
   29   13   78 1     
   30   13   79 1     
   31   13   80 1     
   32   14   15 2     
   33   14   16 1     
   34   16   17 1     
   35   16   81 1     
   36   16   82 1     
   37   17   18 1     
   38   17   83 1     
   39   17   84 1     
   40   18   19 1     
   41   18   20 1     
   42   18   85 1     
   43   19   86 1     
   44   19   87 1     
   45   19   88 1     
   46   20   21 1     
   47   20   61 1     
   48   20   89 1     
   49   21   22 1     
   50   21   90 1     
   51   21   91 1     
   52   22   58 1     
   53   22   23 1     
   54   22   92 1     
   55   23   24 1     
   56   24   25 2     
   57   24   26 1     
   58   26   27 1     
   59   26   93 1     
   60   26   94 1     
   61   27   28 1     
   62   27   29 1     
   63   27   95 1     
   64   28   96 1     
   65   29   30 1     
   66   29   97 1     
   67   29   98 1     
   68   30   31 1     
   69   30   32 1     
   70   30   99 1     
   71   31  100 1     
   72   32   33 1     
   73   32  101 1     
   74   32  102 1     
   75   33   34 2     
   76   33   35 1     
   77   35   36 1     
   78   35   37 1     
   79   35  103 1     
   80   36  104 1     
   81   36  105 1     
   82   36  106 1     
   83   37   38 1     
   84   37   40 1     
   85   37  107 1     
   86   38   39 1     
   87   39  108 1     
   88   39  109 1     
   89   39  110 1     
   90   40   44 1     
   91   40   41 2     
   92   41   42 1     
   93   41  111 1     
   94   42   43 1     
   95   43   44 2     
   96   43   45 1     
   97   45   49 1     
   98   45   46 2     
   99   46   47 1     
  100   46  112 1     
  101   47   48 1     
  102   48   49 2     
  103   48   50 1     
  104   50   60 1     
  105   50   51 2     
  106   51   52 1     
  107   51  113 1     
  108   52   53 1     
  109   53   54 1     
  110   53   60 2     
  111   54   55 2     
  112   54  114 1     
  113   55   56 1     
  114   55  115 1     
  115   56   57 1     
  116   56  116 1     
  117   56  117 1     
  118   57   58 1     
  119   57  118 1     
  120   57  119 1     
  121   58   59 1     
  122   58  120 1     
  123   59  121 1     
  124   59  122 1     
  125   59  123 1     
  126   61   62 1     
  127   62  124 1     
  128   62  125 1     
  129   62  126 1     
@<TRIPOS>SUBSTRUCTURE
      1 ****           1
@<TRIPOS>SET
DONOR_HYDROGENS      STATIC     ATOMS    <user>   **** ""
4 8 76 96 100
ATOM$RED        STATIC     ATOMS    COLORGROUP SYSTEM
4 8 76 96 100
