#       Name:                JG3
#       Creating user name   gbret
#       Creation time:       Fri Sep  9 10:30:00 2016


#       File generated by GOLD software.
#

@<TRIPOS>MOLECULE
JG3
    43    44     1
SMALL
NO_CHARGES


@<TRIPOS>ATOM
      1 N1           1.4945   0.1807  -1.2845 N.4            1 <1>                0.0000
      2 H2           1.5163  -0.8231  -1.1850 H              1 <1>                0.0000
      3 H3           2.4376   0.5392  -1.2860 H              1 <1>                0.0000
      4 H4           1.0413   0.4229  -2.1529 H              1 <1>                0.0000
      5 C5           0.7492   0.7679  -0.1630 C.3            1 <1>                0.0000
      6 C6           0.7161   2.2900  -0.3138 C.3            1 <1>                0.0000
      7 C7           2.1150   2.8374  -0.1930 C.ar           1 <1>                0.0000
      8 C8           2.6119   3.1971   1.0458 C.ar           1 <1>                0.0000
      9 C9           3.8950   3.6992   1.1566 C.ar           1 <1>                0.0000
     10 C10          4.6815   3.8411   0.0286 C.ar           1 <1>                0.0000
     11 C11          4.1850   3.4805  -1.2100 C.ar           1 <1>                0.0000
     12 C12          2.9033   2.9744  -1.3203 C.ar           1 <1>                0.0000
     13 C13         -0.6810   0.2243  -0.1607 C.3            1 <1>                0.0000
     14 O14         -1.3228   0.5673  -1.3906 O.3            1 <1>                0.0000
     15 C15         -0.6478  -1.2978  -0.0099 C.3            1 <1>                0.0000
     16 N16         -2.0196  -1.8069   0.1212 N.4            1 <1>                0.0000
     17 H17         -2.5583  -1.5857  -0.7027 H              1 <1>                0.0000
     18 C18         -2.6690  -1.2443   1.3331 C.3            1 <1>                0.0000
     19 C19         -3.8070  -2.2349   1.6600 C.3            1 <1>                0.0000
     20 C20         -3.3729  -3.5696   1.0199 C.3            1 <1>                0.0000
     21 C21         -2.0092  -3.2736   0.3569 C.3            1 <1>                0.0000
     22 C22         -1.8859  -4.0190  -0.9470 C.2            1 <1>                0.0000
     23 O23         -2.2862  -3.5103  -1.9802 O.co2          1 <1>                0.0000
     24 O24         -1.3859  -5.1308  -0.9688 O.co2          1 <1>                0.0000
     25 H25          1.2388   0.5063   0.7751 H              1 <1>                0.0000
     26 H26          0.3075   2.5496  -1.2904 H              1 <1>                0.0000
     27 H27          0.0893   2.7191   0.4680 H              1 <1>                0.0000
     28 H28          1.9974   3.0863   1.9270 H              1 <1>                0.0000
     29 H29          4.2830   3.9809   2.1243 H              1 <1>                0.0000
     30 H30          5.6838   4.2340   0.1151 H              1 <1>                0.0000
     31 H31          4.7993   3.5916  -2.0913 H              1 <1>                0.0000
     32 H32          2.5154   2.6927  -2.2880 H              1 <1>                0.0000
     33 H33         -1.2339   0.6600   0.6715 H              1 <1>                0.0000
     34 H34         -0.8838   0.2122  -2.1757 H              1 <1>                0.0000
     35 H35         -0.1787  -1.7399  -0.8888 H              1 <1>                0.0000
     36 H36         -0.0756  -1.5625   0.8793 H              1 <1>                0.0000
     37 H37         -1.9580  -1.1966   2.1580 H              1 <1>                0.0000
     38 H38         -3.0750  -0.2550   1.1223 H              1 <1>                0.0000
     39 H39         -3.9115  -2.3488   2.7390 H              1 <1>                0.0000
     40 H40         -4.7446  -1.8922   1.2221 H              1 <1>                0.0000
     41 H41         -3.2643  -4.3386   1.7846 H              1 <1>                0.0000
     42 H42         -4.0974  -3.8820   0.2678 H              1 <1>                0.0000
     43 H43         -1.1937  -3.5428   1.0282 H              1 <1>                0.0000
@<TRIPOS>BOND
    1    1    2 1     
    2    1    3 1     
    3    1    4 1     
    4    1    5 1     
    5    5    6 1     
    6    5   13 1     
    7    5   25 1     
    8    6    7 1     
    9    6   26 1     
   10    6   27 1     
   11    7   12 ar    
   12    7    8 ar    
   13    8    9 ar    
   14    8   28 1     
   15    9   10 ar    
   16    9   29 1     
   17   10   11 ar    
   18   10   30 1     
   19   11   12 ar    
   20   11   31 1     
   21   12   32 1     
   22   13   14 1     
   23   13   15 1     
   24   13   33 1     
   25   14   34 1     
   26   15   16 1     
   27   15   35 1     
   28   15   36 1     
   29   16   17 1     
   30   16   21 1     
   31   16   18 1     
   32   18   19 1     
   33   18   37 1     
   34   18   38 1     
   35   19   20 1     
   36   19   39 1     
   37   19   40 1     
   38   20   21 1     
   39   20   41 1     
   40   20   42 1     
   41   21   22 1     
   42   21   43 1     
   43   22   23 ar    
   44   22   24 ar    
@<TRIPOS>SUBSTRUCTURE
      1 ****           1
@<TRIPOS>SET
DONOR_HYDROGENS      STATIC     ATOMS    <user>   **** ""
5 2 3 4 34 17
ATOM$RED        STATIC     ATOMS    COLORGROUP SYSTEM
5 2 3 4 34 17
