#       Name:                JPA
#       Creating user name   gbret
#       Creation time:       Fri Sep  9 10:35:21 2016


#       File generated by GOLD software.
#

@<TRIPOS>MOLECULE
JPA
    37    39     1
SMALL
NO_CHARGES


@<TRIPOS>ATOM
      1 C1          -0.3229   1.2669  -3.7754 C.3            1 <1>                0.0000
      2 C2          -0.3371  -0.2400  -3.7762 C.ar           1 <1>                0.0000
      3 C3          -0.3449  -0.9309  -4.9712 C.ar           1 <1>                0.0000
      4 C4          -0.3575  -2.3138  -4.9734 C.ar           1 <1>                0.0000
      5 C5          -0.3629  -3.0126  -3.7794 C.ar           1 <1>                0.0000
      6 C6          -0.3557  -2.3323  -2.5788 C.ar           1 <1>                0.0000
      7 C7          -0.3367  -0.9387  -2.5707 C.ar           1 <1>                0.0000
      8 C8          -0.3284  -0.2017  -1.2831 C.ar           1 <1>                0.0000
      9 C9           0.6057   0.8091  -1.0637 C.ar           1 <1>                0.0000
     10 C10          0.6132   1.4943   0.1340 C.ar           1 <1>                0.0000
     11 C11         -0.3079   1.1792   1.1219 C.ar           1 <1>                0.0000
     12 O12         -0.2978   1.8567   2.3004 O.3            1 <1>                0.0000
     13 C13          0.3165   1.2763   3.3648 C.ar           1 <1>                0.0000
     14 C14          1.0090   0.0851   3.2027 C.ar           1 <1>                0.0000
     15 C15          1.6332  -0.5031   4.2856 C.ar           1 <1>                0.0000
     16 C16          1.5684   0.0946   5.5320 C.ar           1 <1>                0.0000
     17 Cl17         2.3544  -0.6469   6.8907 Cl             1 <1>                0.0000
     18 C18          0.8786   1.2825   5.6968 C.ar           1 <1>                0.0000
     19 C19          0.2568   1.8775   4.6148 C.ar           1 <1>                0.0000
     20 Cl20        -0.6088   3.3679   4.8217 Cl             1 <1>                0.0000
     21 C21         -1.2436   0.1699   0.9080 C.ar           1 <1>                0.0000
     22 O22         -2.1460  -0.1378   1.8776 O.3            1 <1>                0.0000
     23 C23         -1.2582  -0.5155  -0.2935 C.ar           1 <1>                0.0000
     24 H24          0.7082   1.6205  -3.7813 H              1 <1>                0.0000
     25 H25         -0.8384   1.6356  -4.6622 H              1 <1>                0.0000
     26 H26         -0.8280   1.6346  -2.8823 H              1 <1>                0.0000
     27 H27         -0.3415  -0.3904  -5.9063 H              1 <1>                0.0000
     28 H28         -0.3635  -2.8503  -5.9107 H              1 <1>                0.0000
     29 H29         -0.3731  -4.0925  -3.7869 H              1 <1>                0.0000
     30 H30         -0.3602  -2.8788  -1.6473 H              1 <1>                0.0000
     31 H31          1.3242   1.0560  -1.8313 H              1 <1>                0.0000
     32 H32          1.3379   2.2771   0.3026 H              1 <1>                0.0000
     33 H33          1.0598  -0.3823   2.2303 H              1 <1>                0.0000
     34 H34          2.1720  -1.4306   4.1594 H              1 <1>                0.0000
     35 H35          0.8292   1.7474   6.6704 H              1 <1>                0.0000
     36 H36         -2.9696   0.3659   1.8226 H              1 <1>                0.0000
     37 H37         -1.9831  -1.2983  -0.4610 H              1 <1>                0.0000
@<TRIPOS>BOND
    1    1    2 1     
    2    1   24 1     
    3    1   25 1     
    4    1   26 1     
    5    2    7 ar    
    6    2    3 ar    
    7    3    4 ar    
    8    3   27 1     
    9    4    5 ar    
   10    4   28 1     
   11    5    6 ar    
   12    5   29 1     
   13    6    7 ar    
   14    6   30 1     
   15    7    8 1     
   16    8   23 ar    
   17    8    9 ar    
   18    9   10 ar    
   19    9   31 1     
   20   10   11 ar    
   21   10   32 1     
   22   11   12 1     
   23   11   21 ar    
   24   12   13 1     
   25   13   19 ar    
   26   13   14 ar    
   27   14   15 ar    
   28   14   33 1     
   29   15   16 ar    
   30   15   34 1     
   31   16   17 1     
   32   16   18 ar    
   33   18   19 ar    
   34   18   35 1     
   35   19   20 1     
   36   21   22 1     
   37   21   23 ar    
   38   22   36 1     
   39   23   37 1     
@<TRIPOS>SUBSTRUCTURE
      1 ****           1
@<TRIPOS>SET
DONOR_HYDROGENS      STATIC     ATOMS    <user>   **** ""
1 36
ATOM$RED        STATIC     ATOMS    COLORGROUP SYSTEM
1 36
