#       Name:                JZK
#       Creating user name   gbret
#       Creation time:       Fri Sep  9 10:40:54 2016


#       File generated by GOLD software.
#

@<TRIPOS>MOLECULE
JZK
    53    56     1
SMALL
NO_CHARGES


@<TRIPOS>ATOM
      1 N1           5.0179   5.3784   0.8095 N.am           1 <1>                0.0000
      2 C2           5.0362   4.0307   0.8021 C.2            1 <1>                0.0000
      3 O3           6.0972   3.4372   0.7888 O.2            1 <1>                0.0000
      4 C4           3.7676   3.2751   0.8102 C.ar           1 <1>                0.0000
      5 C5           2.5462   3.9606   0.8197 C.ar           1 <1>                0.0000
      6 C6           1.3669   3.2724   0.8277 C.ar           1 <1>                0.0000
      7 C7           1.3692   1.8832   0.8264 C.ar           1 <1>                0.0000
      8 N8           0.3717   0.9267   0.8331 N.pl3          1 <1>                0.0000
      9 C9          -1.0716   1.1779   0.8440 C.3            1 <1>                0.0000
     10 C10         -1.5847   1.2663  -0.5947 C.3            1 <1>                0.0000
     11 C11         -1.4152  -0.0906  -1.2809 C.3            1 <1>                0.0000
     12 C12         -1.9284  -0.0022  -2.7196 C.3            1 <1>                0.0000
     13 C13         -3.4090   0.3831  -2.7101 C.3            1 <1>                0.0000
     14 C14         -3.5785   1.7400  -2.0239 C.3            1 <1>                0.0000
     15 C15         -3.0654   1.6516  -0.5852 C.3            1 <1>                0.0000
     16 C16          0.9802  -0.2963   0.8273 C.2            1 <1>                0.0000
     17 N17          0.3225  -1.5080   0.8308 N.pl3          1 <1>                0.0000
     18 C18          1.0881  -2.7570   0.8238 C.3            1 <1>                0.0000
     19 C19          0.1392  -3.9278   0.8295 C.ar           1 <1>                0.0000
     20 C20         -0.1303  -4.5935   2.0106 C.ar           1 <1>                0.0000
     21 C21         -1.0005  -5.6673   2.0160 C.ar           1 <1>                0.0000
     22 C22         -1.6020  -6.0763   0.8402 C.ar           1 <1>                0.0000
     23 C23         -1.3333  -5.4117  -0.3413 C.ar           1 <1>                0.0000
     24 C24         -0.4666  -4.3330  -0.3463 C.ar           1 <1>                0.0000
     25 Cl25        -0.1286  -3.4975  -1.8300 Cl             1 <1>                0.0000
     26 N26          2.2810  -0.1468   0.8174 N.2            1 <1>                0.0000
     27 C27          2.5864   1.1783   0.8163 C.ar           1 <1>                0.0000
     28 C28          3.7884   1.8830   0.8025 C.ar           1 <1>                0.0000
     29 H29          5.8513   5.8747   0.8001 H              1 <1>                0.0000
     30 H30          4.1715   5.8519   0.8201 H              1 <1>                0.0000
     31 H31          2.5372   5.0405   0.8212 H              1 <1>                0.0000
     32 H32          0.4300   3.8095   0.8354 H              1 <1>                0.0000
     33 H33         -1.5783   0.3630   1.3611 H              1 <1>                0.0000
     34 H34         -1.2731   2.1166   1.3600 H              1 <1>                0.0000
     35 H35         -1.0162   2.0215  -1.1374 H              1 <1>                0.0000
     36 H36         -0.3604  -0.3651  -1.2876 H              1 <1>                0.0000
     37 H37         -1.9837  -0.8458  -0.7381 H              1 <1>                0.0000
     38 H38         -1.3599   0.7530  -3.2623 H              1 <1>                0.0000
     39 H39         -1.8076  -0.9689  -3.2084 H              1 <1>                0.0000
     40 H40         -3.7746   0.4461  -3.7351 H              1 <1>                0.0000
     41 H41         -3.9775  -0.3721  -2.1674 H              1 <1>                0.0000
     42 H42         -3.0100   2.4952  -2.5666 H              1 <1>                0.0000
     43 H43         -4.6334   2.0145  -2.0172 H              1 <1>                0.0000
     44 H44         -3.6339   0.8964  -0.0425 H              1 <1>                0.0000
     45 H45         -3.1862   2.6183  -0.0963 H              1 <1>                0.0000
     46 H46         -0.6471  -1.5335   0.8379 H              1 <1>                0.0000
     47 H47          1.7095  -2.7973  -0.0708 H              1 <1>                0.0000
     48 H48          1.7225  -2.7993   1.7091 H              1 <1>                0.0000
     49 H49          0.3395  -4.2747   2.9294 H              1 <1>                0.0000
     50 H50         -1.2105  -6.1873   2.9390 H              1 <1>                0.0000
     51 H51         -2.2816  -6.9157   0.8449 H              1 <1>                0.0000
     52 H52         -1.8030  -5.7314  -1.2597 H              1 <1>                0.0000
     53 H53          4.7294   1.3531   0.7883 H              1 <1>                0.0000
@<TRIPOS>BOND
    1    1    2 am    
    2    1   29 1     
    3    1   30 1     
    4    2    3 2     
    5    2    4 1     
    6    4   28 ar    
    7    4    5 ar    
    8    5    6 ar    
    9    5   31 1     
   10    6    7 ar    
   11    6   32 1     
   12    7   27 ar    
   13    7    8 1     
   14    8    9 1     
   15    8   16 1     
   16    9   10 1     
   17    9   33 1     
   18    9   34 1     
   19   10   15 1     
   20   10   11 1     
   21   10   35 1     
   22   11   12 1     
   23   11   36 1     
   24   11   37 1     
   25   12   13 1     
   26   12   38 1     
   27   12   39 1     
   28   13   14 1     
   29   13   40 1     
   30   13   41 1     
   31   14   15 1     
   32   14   42 1     
   33   14   43 1     
   34   15   44 1     
   35   15   45 1     
   36   16   17 1     
   37   16   26 2     
   38   17   18 1     
   39   17   46 1     
   40   18   19 1     
   41   18   47 1     
   42   18   48 1     
   43   19   24 ar    
   44   19   20 ar    
   45   20   21 ar    
   46   20   49 1     
   47   21   22 ar    
   48   21   50 1     
   49   22   23 ar    
   50   22   51 1     
   51   23   24 ar    
   52   23   52 1     
   53   24   25 1     
   54   26   27 1     
   55   27   28 ar    
   56   28   53 1     
@<TRIPOS>SUBSTRUCTURE
      1 ****           1
@<TRIPOS>SET
DONOR_HYDROGENS      STATIC     ATOMS    <user>   **** ""
3 29 30 46
ATOM$RED        STATIC     ATOMS    COLORGROUP SYSTEM
3 29 30 46
