#       Name:                JZT
#       Creating user name   gbret
#       Creation time:       Fri Sep  9 10:41:34 2016


#       File generated by GOLD software.
#

@<TRIPOS>MOLECULE
JZT
   116   119     1
SMALL
NO_CHARGES


@<TRIPOS>ATOM
      1 C1           2.7304   5.3001  -4.4456 C.3            1 <1>                0.0000
      2 C2           1.9037   4.5196  -3.4217 C.3            1 <1>                0.0000
      3 C3           1.7747   5.3411  -2.1374 C.3            1 <1>                0.0000
      4 C4           0.5114   4.2447  -3.9933 C.3            1 <1>                0.0000
      5 C5           2.5984   3.1923  -3.1105 C.3            1 <1>                0.0000
      6 C6           3.9530   3.4672  -2.4545 C.3            1 <1>                0.0000
      7 N7           4.5651   2.1997  -2.0484 N.am           1 <1>                0.0000
      8 C8           4.3048   1.7223  -0.8221 C.2            1 <1>                0.0000
      9 O9           3.5658   2.3418  -0.0876 O.2            1 <1>                0.0000
     10 C10          4.9126   0.4314  -0.3404 C.3            1 <1>                0.0000
     11 C11          5.1612  -0.4867  -1.5419 C.3            1 <1>                0.0000
     12 C12          5.8844  -1.7533  -1.0798 C.3            1 <1>                0.0000
     13 C13          3.8254  -0.8637  -2.1856 C.3            1 <1>                0.0000
     14 C14          6.0323   0.2622  -2.5562 C.3            1 <1>                0.0000
     15 C15          5.3594   1.5595  -2.9194 C.2            1 <1>                0.0000
     16 O16          5.5454   2.0386  -4.0173 O.2            1 <1>                0.0000
     17 N17          1.7641   2.4068  -2.1977 N.am           1 <1>                0.0000
     18 C18          0.9072   1.4897  -2.6886 C.2            1 <1>                0.0000
     19 O19          0.7518   1.3845  -3.8899 O.2            1 <1>                0.0000
     20 N20          0.2225   0.6892  -1.8479 N.am           1 <1>                0.0000
     21 C21         -0.6252  -0.3797  -2.3818 C.3            1 <1>                0.0000
     22 C22          0.2056  -1.6531  -2.5491 C.3            1 <1>                0.0000
     23 C23          0.3627  -2.3461  -1.1947 C.3            1 <1>                0.0000
     24 C24          0.4739  -3.8572  -1.4042 C.3            1 <1>                0.0000
     25 C25          1.2546  -4.4784  -0.2450 C.3            1 <1>                0.0000
     26 C26          0.3136  -5.3373   0.6021 C.3            1 <1>                0.0000
     27 C27          0.3274  -4.8345   2.0471 C.3            1 <1>                0.0000
     28 C28         -1.0972  -4.8482   2.6048 C.3            1 <1>                0.0000
     29 C29         -1.3430  -3.5701   3.4095 C.3            1 <1>                0.0000
     30 C30         -2.8154  -3.1699   3.2950 C.3            1 <1>                0.0000
     31 C31         -2.9224  -1.6483   3.1719 C.3            1 <1>                0.0000
     32 N32         -3.5112  -1.3204   1.8552 N.am           1 <1>                0.0000
     33 C33         -3.1225  -0.1361   1.3040 C.2            1 <1>                0.0000
     34 O34         -2.3658   0.6008   1.9001 O.2            1 <1>                0.0000
     35 C35         -3.6459   0.2444  -0.0566 C.3            1 <1>                0.0000
     36 C36         -4.3709   1.5922   0.0275 C.3            1 <1>                0.0000
     37 C37         -3.5436   2.5765  -0.8111 C.3            1 <1>                0.0000
     38 C38         -2.3577   1.7816  -1.3680 C.3            1 <1>                0.0000
     39 N39         -2.5267   0.3784  -0.9889 N.am           1 <1>                0.0000
     40 C40         -1.7635  -0.6399  -1.4298 C.2            1 <1>                0.0000
     41 O41         -1.9936  -1.7714  -1.0587 O.2            1 <1>                0.0000
     42 C42         -4.9594   2.1963  -1.2487 C.3            1 <1>                0.0000
     43 C43         -5.1000   1.2783  -2.4646 C.3            1 <1>                0.0000
     44 C44         -6.0549   3.2525  -1.0897 C.3            1 <1>                0.0000
     45 C45         -3.8201  -1.1050   4.2854 C.3            1 <1>                0.0000
     46 O46         -5.1144  -1.7029   4.1881 O.3            1 <1>                0.0000
     47 C47         -3.2140  -1.4346   5.6252 C.2            1 <1>                0.0000
     48 O48         -3.7635  -2.2267   6.3610 O.2            1 <1>                0.0000
     49 N49         -2.0612  -0.8490   6.0057 N.am           1 <1>                0.0000
     50 C50         -1.4149  -1.2491   7.2580 C.3            1 <1>                0.0000
     51 C51         -0.2195  -0.3669   7.5106 C.2            1 <1>                0.0000
     52 C52         -0.1247   0.3022   8.6329 C.2            1 <1>                0.0000
     53 H53          3.7223   5.4959  -4.0383 H              1 <1>                0.0000
     54 H54          2.8223   4.7148  -5.3605 H              1 <1>                0.0000
     55 H55          2.2355   6.2456  -4.6673 H              1 <1>                0.0000
     56 H56          1.2798   6.2866  -2.3592 H              1 <1>                0.0000
     57 H57          1.1858   4.7850  -1.4080 H              1 <1>                0.0000
     58 H58          2.7666   5.5369  -1.7302 H              1 <1>                0.0000
     59 H59          0.6060   3.7205  -4.9443 H              1 <1>                0.0000
     60 H60         -0.0536   3.6289  -3.2936 H              1 <1>                0.0000
     61 H61         -0.0102   5.1890  -4.1494 H              1 <1>                0.0000
     62 H62          2.7489   2.6354  -4.0353 H              1 <1>                0.0000
     63 H63          4.6050   3.9741  -3.1659 H              1 <1>                0.0000
     64 H64          3.8106   4.0993  -1.5779 H              1 <1>                0.0000
     65 H65          5.8578   0.6387   0.1613 H              1 <1>                0.0000
     66 H66          4.2291  -0.0558   0.3550 H              1 <1>                0.0000
     67 H67          5.2699  -2.2753  -0.3463 H              1 <1>                0.0000
     68 H68          6.0600  -2.4044  -1.9361 H              1 <1>                0.0000
     69 H69          6.8385  -1.4824  -0.6276 H              1 <1>                0.0000
     70 H70          3.3153   0.0398  -2.5198 H              1 <1>                0.0000
     71 H71          4.0050  -1.5165  -3.0397 H              1 <1>                0.0000
     72 H72          3.2041  -1.3828  -1.4557 H              1 <1>                0.0000
     73 H73          7.0095   0.4647  -2.1178 H              1 <1>                0.0000
     74 H74          6.1531  -0.3466  -3.4523 H              1 <1>                0.0000
     75 H75          1.8285   2.5468  -1.2400 H              1 <1>                0.0000
     76 H76          0.2910   0.8207  -0.8893 H              1 <1>                0.0000
     77 H77         -1.0239  -0.0772  -3.3501 H              1 <1>                0.0000
     78 H78         -0.2968  -2.3254  -3.2446 H              1 <1>                0.0000
     79 H79          1.1895  -1.3954  -2.9411 H              1 <1>                0.0000
     80 H80          1.2635  -1.9804  -0.7019 H              1 <1>                0.0000
     81 H81         -0.5054  -2.1285  -0.5725 H              1 <1>                0.0000
     82 H82         -0.5245  -4.2927  -1.4442 H              1 <1>                0.0000
     83 H83          0.9946  -4.0567  -2.3408 H              1 <1>                0.0000
     84 H84          2.0576  -5.1007  -0.6400 H              1 <1>                0.0000
     85 H85          1.6789  -3.6869   0.3727 H              1 <1>                0.0000
     86 H86         -0.6985  -5.2691   0.2032 H              1 <1>                0.0000
     87 H87          0.6458  -6.3751   0.5752 H              1 <1>                0.0000
     88 H88          0.9606  -5.4837   2.6518 H              1 <1>                0.0000
     89 H89          0.7186  -3.8174   2.0743 H              1 <1>                0.0000
     90 H90         -1.8092  -4.9014   1.7812 H              1 <1>                0.0000
     91 H91         -1.2255  -5.7155   3.2524 H              1 <1>                0.0000
     92 H92         -1.0948  -3.7464   4.4561 H              1 <1>                0.0000
     93 H93         -0.7171  -2.7683   3.0179 H              1 <1>                0.0000
     94 H94         -3.2514  -3.6373   2.4121 H              1 <1>                0.0000
     95 H95         -3.3521  -3.5011   4.1840 H              1 <1>                0.0000
     96 H96         -1.9299  -1.2043   3.2496 H              1 <1>                0.0000
     97 H97         -4.1372  -1.9131   1.4105 H              1 <1>                0.0000
     98 H98         -4.3355  -0.5199  -0.4147 H              1 <1>                0.0000
     99 H99         -4.7820   1.8807   0.9923 H              1 <1>                0.0000
    100 H100        -3.3484   3.5868  -0.4568 H              1 <1>                0.0000
    101 H101        -2.3347   1.8685  -2.4543 H              1 <1>                0.0000
    102 H102        -1.4281   2.1661  -0.9484 H              1 <1>                0.0000
    103 H103        -4.1175   0.9048  -2.7534 H              1 <1>                0.0000
    104 H104        -5.7482   0.4388  -2.2130 H              1 <1>                0.0000
    105 H105        -5.5343   1.8371  -3.2935 H              1 <1>                0.0000
    106 H106        -6.4426   3.5246  -2.0714 H              1 <1>                0.0000
    107 H107        -6.8627   2.8491  -0.4791 H              1 <1>                0.0000
    108 H108        -5.6399   4.1363  -0.6052 H              1 <1>                0.0000
    109 H109        -3.9109  -0.0236   4.1838 H              1 <1>                0.0000
    110 H110        -5.1097  -2.6664   4.2699 H              1 <1>                0.0000
    111 H111        -1.6595  -0.1626   5.4503 H              1 <1>                0.0000
    112 H112        -2.1224  -1.1468   8.0809 H              1 <1>                0.0000
    113 H113        -1.0912  -2.2873   7.1843 H              1 <1>                0.0000
    114 H114         0.5590  -0.2863   6.7664 H              1 <1>                0.0000
    115 H115        -0.8609   0.1599   9.4102 H              1 <1>                0.0000
    116 H116         0.6896   0.9960   8.7807 H              1 <1>                0.0000
@<TRIPOS>BOND
    1    1    2 1     
    2    1   53 1     
    3    1   54 1     
    4    1   55 1     
    5    2    3 1     
    6    2    4 1     
    7    2    5 1     
    8    3   56 1     
    9    3   57 1     
   10    3   58 1     
   11    4   59 1     
   12    4   60 1     
   13    4   61 1     
   14    5    6 1     
   15    5   17 1     
   16    5   62 1     
   17    6    7 1     
   18    6   63 1     
   19    6   64 1     
   20    7   15 am    
   21    7    8 am    
   22    8    9 2     
   23    8   10 1     
   24   10   11 1     
   25   10   65 1     
   26   10   66 1     
   27   11   12 1     
   28   11   13 1     
   29   11   14 1     
   30   12   67 1     
   31   12   68 1     
   32   12   69 1     
   33   13   70 1     
   34   13   71 1     
   35   13   72 1     
   36   14   15 1     
   37   14   73 1     
   38   14   74 1     
   39   15   16 2     
   40   17   18 am    
   41   17   75 1     
   42   18   19 2     
   43   18   20 am    
   44   20   21 1     
   45   20   76 1     
   46   21   40 1     
   47   21   22 1     
   48   21   77 1     
   49   22   23 1     
   50   22   78 1     
   51   22   79 1     
   52   23   24 1     
   53   23   80 1     
   54   23   81 1     
   55   24   25 1     
   56   24   82 1     
   57   24   83 1     
   58   25   26 1     
   59   25   84 1     
   60   25   85 1     
   61   26   27 1     
   62   26   86 1     
   63   26   87 1     
   64   27   28 1     
   65   27   88 1     
   66   27   89 1     
   67   28   29 1     
   68   28   90 1     
   69   28   91 1     
   70   29   30 1     
   71   29   92 1     
   72   29   93 1     
   73   30   31 1     
   74   30   94 1     
   75   30   95 1     
   76   31   32 1     
   77   31   45 1     
   78   31   96 1     
   79   32   33 am    
   80   32   97 1     
   81   33   34 2     
   82   33   35 1     
   83   35   39 1     
   84   35   36 1     
   85   35   98 1     
   86   36   42 1     
   87   36   37 1     
   88   36   99 1     
   89   37   38 1     
   90   37   42 1     
   91   37  100 1     
   92   38   39 1     
   93   38  101 1     
   94   38  102 1     
   95   39   40 am    
   96   40   41 2     
   97   42   43 1     
   98   42   44 1     
   99   43  103 1     
  100   43  104 1     
  101   43  105 1     
  102   44  106 1     
  103   44  107 1     
  104   44  108 1     
  105   45   46 1     
  106   45   47 1     
  107   45  109 1     
  108   46  110 1     
  109   47   48 2     
  110   47   49 am    
  111   49   50 1     
  112   49  111 1     
  113   50   51 1     
  114   50  112 1     
  115   50  113 1     
  116   51   52 2     
  117   51  114 1     
  118   52  115 1     
  119   52  116 1     
@<TRIPOS>SUBSTRUCTURE
      1 ****           1
@<TRIPOS>SET
DONOR_HYDROGENS      STATIC     ATOMS    <user>   **** ""
5 75 76 97 110 111
ATOM$RED        STATIC     ATOMS    COLORGROUP SYSTEM
5 75 76 97 110 111
