#       Name:                KBP
#       Creating user name   gbret
#       Creation time:       Fri Sep  9 10:49:29 2016


#       File generated by GOLD software.
#

@<TRIPOS>MOLECULE
KBP
    46    45     1
SMALL
NO_CHARGES


@<TRIPOS>ATOM
      1 C1          -2.3727   7.7530   3.6360 C.3            1 <1>                0.0000
      2 C2          -2.3519   6.2231   3.6276 C.3            1 <1>                0.0000
      3 C3          -1.6358   5.7297   2.3688 C.3            1 <1>                0.0000
      4 C4          -1.6150   4.1999   2.3604 C.3            1 <1>                0.0000
      5 C5          -0.8989   3.7065   1.1016 C.3            1 <1>                0.0000
      6 C6          -0.8782   2.1766   1.0932 C.3            1 <1>                0.0000
      7 C7          -0.1620   1.6832  -0.1656 C.3            1 <1>                0.0000
      8 C8          -0.1413   0.1534  -0.1740 C.3            1 <1>                0.0000
      9 O9          -1.4779  -0.3406  -0.2814 O.3            1 <1>                0.0000
     10 C10          0.6816  -0.3390  -1.3662 C.3            1 <1>                0.0000
     11 C11          0.8051  -1.8397  -1.3059 C.2            1 <1>                0.0000
     12 O12          0.2859  -2.4551  -0.3984 O.2            1 <1>                0.0000
     13 S13          1.6781  -2.6762  -2.5180 S.3            1 <1>                0.0000
     14 C14          1.4823  -4.3766  -1.9295 C.3            1 <1>                0.0000
     15 C15          2.2015  -5.3324  -2.8835 C.3            1 <1>                0.0000
     16 N16          2.0430  -6.7087  -2.4071 N.am           1 <1>                0.0000
     17 C17          2.5967  -7.7275  -3.0941 C.2            1 <1>                0.0000
     18 C18          2.4337  -9.1433  -2.6041 C.3            1 <1>                0.0000
     19 O19          3.2262  -7.5049  -4.1066 O.2            1 <1>                0.0000
     20 H20         -1.3501   8.1303   3.6283 H              1 <1>                0.0000
     21 H21         -2.8999   8.1140   2.7530 H              1 <1>                0.0000
     22 H22         -2.8829   8.1045   4.5328 H              1 <1>                0.0000
     23 H23         -1.8247   5.8621   4.5107 H              1 <1>                0.0000
     24 H24         -3.3745   5.8458   3.6354 H              1 <1>                0.0000
     25 H25         -2.1630   6.0908   1.4858 H              1 <1>                0.0000
     26 H26         -0.6132   6.1070   2.3611 H              1 <1>                0.0000
     27 H27         -1.0879   3.8388   3.2435 H              1 <1>                0.0000
     28 H28         -2.6376   3.8226   2.3681 H              1 <1>                0.0000
     29 H29         -1.4261   4.0675   0.2185 H              1 <1>                0.0000
     30 H30          0.1237   4.0837   1.0939 H              1 <1>                0.0000
     31 H31         -0.3510   1.8155   1.9762 H              1 <1>                0.0000
     32 H32         -1.9007   1.7993   1.1009 H              1 <1>                0.0000
     33 H33         -0.6892   2.0443  -1.0487 H              1 <1>                0.0000
     34 H34          0.8606   2.0605  -0.1734 H              1 <1>                0.0000
     35 H35          0.3068  -0.2090   0.7512 H              1 <1>                0.0000
     36 H36         -1.9388  -0.0570  -1.0828 H              1 <1>                0.0000
     37 H37          0.1855  -0.0522  -2.2934 H              1 <1>                0.0000
     38 H38          1.6748   0.1090  -1.3320 H              1 <1>                0.0000
     39 H39          1.9117  -4.4675  -0.9318 H              1 <1>                0.0000
     40 H40          0.4224  -4.6287  -1.8932 H              1 <1>                0.0000
     41 H41          1.7720  -5.2415  -3.8811 H              1 <1>                0.0000
     42 H42          3.2613  -5.0803  -2.9197 H              1 <1>                0.0000
     43 H43          1.5395  -6.8867  -1.5974 H              1 <1>                0.0000
     44 H44          1.8426  -9.1450  -1.6883 H              1 <1>                0.0000
     45 H45          1.9256  -9.7350  -3.3656 H              1 <1>                0.0000
     46 H46          3.4148  -9.5739  -2.4042 H              1 <1>                0.0000
@<TRIPOS>BOND
    1    1    2 1     
    2    1   20 1     
    3    1   21 1     
    4    1   22 1     
    5    2    3 1     
    6    2   23 1     
    7    2   24 1     
    8    3    4 1     
    9    3   25 1     
   10    3   26 1     
   11    4    5 1     
   12    4   27 1     
   13    4   28 1     
   14    5    6 1     
   15    5   29 1     
   16    5   30 1     
   17    6    7 1     
   18    6   31 1     
   19    6   32 1     
   20    7    8 1     
   21    7   33 1     
   22    7   34 1     
   23    8    9 1     
   24    8   10 1     
   25    8   35 1     
   26    9   36 1     
   27   10   11 1     
   28   10   37 1     
   29   10   38 1     
   30   11   12 2     
   31   11   13 1     
   32   13   14 1     
   33   14   15 1     
   34   14   39 1     
   35   14   40 1     
   36   15   16 1     
   37   15   41 1     
   38   15   42 1     
   39   16   17 am    
   40   16   43 1     
   41   17   18 1     
   42   17   19 2     
   43   18   44 1     
   44   18   45 1     
   45   18   46 1     
@<TRIPOS>SUBSTRUCTURE
      1 ****           1
@<TRIPOS>SET
DONOR_HYDROGENS      STATIC     ATOMS    <user>   **** ""
2 36 43
ATOM$RED        STATIC     ATOMS    COLORGROUP SYSTEM
2 36 43
