#       Name:                KNP
#       Creating user name   gbret
#       Creation time:       Fri Sep  9 10:57:45 2016


#       File generated by GOLD software.
#

@<TRIPOS>MOLECULE
KNP
    18    18     1
SMALL
NO_CHARGES


@<TRIPOS>ATOM
      1 O1           3.4496  -1.9059  -0.0265 O.co2          1 <1>                0.0000
      2 C2           3.4330  -0.6868  -0.0198 C.2            1 <1>                0.0000
      3 O3           4.4805  -0.0629  -0.0264 O.co2          1 <1>                0.0000
      4 C4           2.1179   0.0489  -0.0095 C.3            1 <1>                0.0000
      5 O5           1.0444  -0.8944  -0.0096 O.3            1 <1>                0.0000
      6 C6          -0.2194  -0.3916  -0.0009 C.ar           1 <1>                0.0000
      7 C7          -0.8579  -0.1357   1.2051 C.ar           1 <1>                0.0000
      8 F8          -0.2244  -0.3853   2.3720 F              1 <1>                0.0000
      9 C9          -2.1436   0.3757   1.2106 C.ar           1 <1>                0.0000
     10 C10         -2.7924   0.6318   0.0169 C.ar           1 <1>                0.0000
     11 C11         -2.1594   0.3776  -1.1856 C.ar           1 <1>                0.0000
     12 C12         -0.8714  -0.1280  -1.1979 C.ar           1 <1>                0.0000
     13 F13         -0.2535  -0.3762  -2.3734 F              1 <1>                0.0000
     14 H14          2.0558   0.6699   0.8841 H              1 <1>                0.0000
     15 H15          2.0474   0.6795  -0.8958 H              1 <1>                0.0000
     16 H16         -2.6410   0.5746   2.1484 H              1 <1>                0.0000
     17 H17         -3.7959   1.0310   0.0239 H              1 <1>                0.0000
     18 H18         -2.6690   0.5784  -2.1164 H              1 <1>                0.0000
@<TRIPOS>BOND
    1    1    2 ar    
    2    2    3 ar    
    3    2    4 1     
    4    4    5 1     
    5    4   14 1     
    6    4   15 1     
    7    5    6 1     
    8    6   12 ar    
    9    6    7 ar    
   10    7    8 1     
   11    7    9 ar    
   12    9   10 ar    
   13    9   16 1     
   14   10   11 ar    
   15   10   17 1     
   16   11   12 ar    
   17   11   18 1     
   18   12   13 1     
@<TRIPOS>SUBSTRUCTURE
      1 ****           1
