#       Name:                KP2
#       Creating user name   gbret
#       Creation time:       Fri Sep  9 10:58:45 2016


#       File generated by GOLD software.
#

@<TRIPOS>MOLECULE
KP2
    28    30     1
SMALL
NO_CHARGES


@<TRIPOS>ATOM
      1 N1           0.5004   5.0217   0.0245 N.pl3          1 <1>                0.0000
      2 C2           0.5192   3.6369   0.0169 C.ar           1 <1>                0.0000
      3 N3          -0.6356   2.9826   0.0190 N.ar           1 <1>                0.0000
      4 C4          -0.6678   1.6537   0.0120 C.ar           1 <1>                0.0000
      5 N5          -1.8731   0.9751   0.0137 N.pl3          1 <1>                0.0000
      6 C6           0.5481   0.9559   0.0022 C.ar           1 <1>                0.0000
      7 C7           0.9305  -0.4628  -0.0066 C.2            1 <1>                0.0000
      8 C8           2.2854  -0.4965  -0.0130 C.2            1 <1>                0.0000
      9 N9           2.7770   0.7815  -0.0089 N.pl3          1 <1>                0.0000
     10 H10          3.7188   1.0133  -0.0124 H              1 <1>                0.0000
     11 C11          1.7489   1.6852   0.0003 C.ar           1 <1>                0.0000
     12 N12          1.6866   3.0167   0.0024 N.ar           1 <1>                0.0000
     13 C13          0.0144  -1.6282  -0.0077 C.ar           1 <1>                0.0000
     14 C14         -1.0264  -1.7011   0.9171 C.ar           1 <1>                0.0000
     15 C15         -1.8763  -2.7882   0.9109 C.ar           1 <1>                0.0000
     16 C16         -1.6973  -3.8044  -0.0105 C.ar           1 <1>                0.0000
     17 C17         -0.6661  -3.7378  -0.9302 C.ar           1 <1>                0.0000
     18 C18          0.1867  -2.6528  -0.9373 C.ar           1 <1>                0.0000
     19 H19          1.3337   5.5181   0.0191 H              1 <1>                0.0000
     20 H20         -0.3461   5.4953   0.0311 H              1 <1>                0.0000
     21 H21         -2.7078   1.4691   0.0200 H              1 <1>                0.0000
     22 H22         -1.8836   0.0052   0.0086 H              1 <1>                0.0000
     23 H23          2.8857  -1.3943  -0.0199 H              1 <1>                0.0000
     24 H24         -1.1669  -0.9084   1.6371 H              1 <1>                0.0000
     25 H25         -2.6827  -2.8459   1.6271 H              1 <1>                0.0000
     26 H26         -2.3649  -4.6533  -0.0115 H              1 <1>                0.0000
     27 H27         -0.5309  -4.5343  -1.6469 H              1 <1>                0.0000
     28 H28          0.9912  -2.6017  -1.6560 H              1 <1>                0.0000
@<TRIPOS>BOND
    1    1    2 1     
    2    1   19 1     
    3    1   20 1     
    4    2   12 ar    
    5    2    3 ar    
    6    3    4 ar    
    7    4    5 1     
    8    4    6 ar    
    9    5   21 1     
   10    5   22 1     
   11    6   11 ar    
   12    6    7 1     
   13    7    8 2     
   14    7   13 1     
   15    8    9 1     
   16    8   23 1     
   17    9   10 1     
   18    9   11 1     
   19   11   12 ar    
   20   13   18 ar    
   21   13   14 ar    
   22   14   15 ar    
   23   14   24 1     
   24   15   16 ar    
   25   15   25 1     
   26   16   17 ar    
   27   16   26 1     
   28   17   18 ar    
   29   17   27 1     
   30   18   28 1     
@<TRIPOS>SUBSTRUCTURE
      1 ****           1
@<TRIPOS>SET
DONOR_HYDROGENS      STATIC     ATOMS    <user>   **** ""
5 19 20 21 22 10
ATOM$RED        STATIC     ATOMS    COLORGROUP SYSTEM
5 19 20 21 22 10
