#       Name:                KPN
#       Creating user name   gbret
#       Creation time:       Fri Sep  9 10:59:29 2016


#       File generated by GOLD software.
#

@<TRIPOS>MOLECULE
KPN
    41    42     1
SMALL
NO_CHARGES


@<TRIPOS>ATOM
      1 N1           4.5104  -2.7618  -2.4073 N.4            1 <1>                0.0000
      2 H2           4.5241  -3.7707  -2.4129 H              1 <1>                0.0000
      3 H3           5.4570  -2.4125  -2.4145 H              1 <1>                0.0000
      4 H4           4.0224  -2.4275  -3.2248 H              1 <1>                0.0000
      5 C5           3.8228  -2.2880  -1.1987 C.3            1 <1>                0.0000
      6 C6           3.8021  -0.7582  -1.1903 C.3            1 <1>                0.0000
      7 N7           3.1163  -0.2857   0.0150 N.am           1 <1>                0.0000
      8 C8           3.8781  -0.0380   1.2416 C.3            1 <1>                0.0000
      9 C9           4.3540   1.3918   1.2572 C.2            1 <1>                0.0000
     10 O10          4.0821   2.1350   0.3297 O.co2          1 <1>                0.0000
     11 O11          5.0110   1.8055   2.1973 O.co2          1 <1>                0.0000
     12 C12          1.7847  -0.0790  -0.0045 C.2            1 <1>                0.0000
     13 O13          1.1540  -0.2842  -1.0200 O.2            1 <1>                0.0000
     14 C14          1.0793   0.4070   1.2353 C.3            1 <1>                0.0000
     15 C15         -0.3929   0.5560   0.9499 C.ar           1 <1>                0.0000
     16 C16         -0.8953   1.7572   0.4705 C.ar           1 <1>                0.0000
     17 C17         -2.2537   1.8527   0.2211 C.ar           1 <1>                0.0000
     18 C18         -3.0650   0.7454   0.4589 C.ar           1 <1>                0.0000
     19 N19         -2.5450  -0.3853   0.9178 N.ar           1 <1>                0.0000
     20 C20         -1.2554  -0.5049   1.1580 C.ar           1 <1>                0.0000
     21 C21         -4.5229   0.8318   0.1972 C.ar           1 <1>                0.0000
     22 C22         -5.3349  -0.2737   0.4404 C.ar           1 <1>                0.0000
     23 C23         -6.6934  -0.1781   0.1915 C.ar           1 <1>                0.0000
     24 C24         -7.1950   1.0214  -0.2930 C.ar           1 <1>                0.0000
     25 C25         -6.3309   2.0789  -0.5117 C.ar           1 <1>                0.0000
     26 N26         -5.0429   1.9627  -0.2612 N.ar           1 <1>                0.0000
     27 H27          2.8002  -2.6653  -1.1910 H              1 <1>                0.0000
     28 H28          4.3500  -2.6491  -0.3157 H              1 <1>                0.0000
     29 H29          4.8247  -0.3809  -1.1980 H              1 <1>                0.0000
     30 H30          3.2749  -0.3971  -2.0734 H              1 <1>                0.0000
     31 H31          3.2412  -0.2183   2.1076 H              1 <1>                0.0000
     32 H32          4.7376  -0.7074   1.2770 H              1 <1>                0.0000
     33 H33          1.2221  -0.3136   2.0407 H              1 <1>                0.0000
     34 H34          1.4911   1.3712   1.5333 H              1 <1>                0.0000
     35 H35         -0.2415   2.5989   0.2960 H              1 <1>                0.0000
     36 H36         -2.6786   2.7728  -0.1522 H              1 <1>                0.0000
     37 H37         -0.8677  -1.4412   1.5313 H              1 <1>                0.0000
     38 H38         -4.9107  -1.1924   0.8176 H              1 <1>                0.0000
     39 H39         -7.3480  -1.0184   0.3700 H              1 <1>                0.0000
     40 H40         -8.2501   1.1282  -0.4977 H              1 <1>                0.0000
     41 H41         -6.7179   3.0138  -0.8891 H              1 <1>                0.0000
@<TRIPOS>BOND
    1    1    2 1     
    2    1    3 1     
    3    1    4 1     
    4    1    5 1     
    5    5    6 1     
    6    5   27 1     
    7    5   28 1     
    8    6    7 1     
    9    6   29 1     
   10    6   30 1     
   11    7    8 1     
   12    7   12 am    
   13    8    9 1     
   14    8   31 1     
   15    8   32 1     
   16    9   10 ar    
   17    9   11 ar    
   18   12   13 2     
   19   12   14 1     
   20   14   15 1     
   21   14   33 1     
   22   14   34 1     
   23   15   20 ar    
   24   15   16 ar    
   25   16   17 ar    
   26   16   35 1     
   27   17   18 ar    
   28   17   36 1     
   29   18   19 ar    
   30   18   21 1     
   31   19   20 ar    
   32   20   37 1     
   33   21   26 ar    
   34   21   22 ar    
   35   22   23 ar    
   36   22   38 1     
   37   23   24 ar    
   38   23   39 1     
   39   24   25 ar    
   40   24   40 1     
   41   25   26 ar    
   42   25   41 1     
@<TRIPOS>SUBSTRUCTURE
      1 ****           1
@<TRIPOS>SET
DONOR_HYDROGENS      STATIC     ATOMS    <user>   **** ""
3 2 3 4
ATOM$RED        STATIC     ATOMS    COLORGROUP SYSTEM
3 2 3 4
