#       Name:                KRG
#       Creating user name   gbret
#       Creation time:       Fri Sep  9 11:00:27 2016


#       File generated by GOLD software.
#

@<TRIPOS>MOLECULE
KRG
    33    34     1
SMALL
NO_CHARGES


@<TRIPOS>ATOM
      1 C1          -1.2387   4.4597   2.0845 C.3            1 <1>                0.0000
      2 C2          -1.2179   2.9298   2.0761 C.3            1 <1>                0.0000
      3 O3          -0.5491   2.4690   0.9004 O.3            1 <1>                0.0000
      4 C4          -0.4432   1.1237   0.7379 C.ar           1 <1>                0.0000
      5 C5          -0.9776   0.2689   1.6882 C.ar           1 <1>                0.0000
      6 C6          -0.8697  -1.1140   1.5237 C.ar           1 <1>                0.0000
      7 C7          -0.2232  -1.6315   0.4004 C.ar           1 <1>                0.0000
      8 C8           0.3104  -0.7680  -0.5497 C.ar           1 <1>                0.0000
      9 C9           0.1941   0.6106  -0.3810 C.ar           1 <1>                0.0000
     10 C10          0.9990  -1.3142  -1.7462 C.2            1 <1>                0.0000
     11 C11          2.3717  -1.1944  -2.1020 C.2            1 <1>                0.0000
     12 C12          3.4464  -0.4743  -1.3290 C.3            1 <1>                0.0000
     13 N13          2.5135  -1.8307  -3.2270 N.2            1 <1>                0.0000
     14 O14          1.4721  -2.3102  -3.6091 O.3            1 <1>                0.0000
     15 C15          0.4655  -2.0553  -2.7621 C.2            1 <1>                0.0000
     16 C16         -0.9701  -2.4906  -2.9066 C.3            1 <1>                0.0000
     17 C17         -1.4376  -2.0256   2.5357 C.2            1 <1>                0.0000
     18 O18         -2.0034  -1.5706   3.5197 O.co2          1 <1>                0.0000
     19 O19         -1.3423  -3.2361   2.3903 O.co2          1 <1>                0.0000
     20 H20         -0.2161   4.8370   2.0768 H              1 <1>                0.0000
     21 H21         -1.7659   4.8207   1.2015 H              1 <1>                0.0000
     22 H22         -1.7489   4.8112   2.9813 H              1 <1>                0.0000
     23 H23         -0.6907   2.5688   2.9592 H              1 <1>                0.0000
     24 H24         -2.2405   2.5525   2.0839 H              1 <1>                0.0000
     25 H25         -1.4774   0.6719   2.5566 H              1 <1>                0.0000
     26 H26         -0.1373  -2.7001   0.2695 H              1 <1>                0.0000
     27 H27          0.6086   1.2806  -1.1196 H              1 <1>                0.0000
     28 H28          3.9144  -1.1651  -0.6277 H              1 <1>                0.0000
     29 H29          4.1981  -0.0936  -2.0204 H              1 <1>                0.0000
     30 H30          3.0040   0.3568  -0.7797 H              1 <1>                0.0000
     31 H31         -1.0855  -3.0621  -3.8275 H              1 <1>                0.0000
     32 H32         -1.2486  -3.1123  -2.0557 H              1 <1>                0.0000
     33 H33         -1.6144  -1.6121  -2.9410 H              1 <1>                0.0000
@<TRIPOS>BOND
    1    1    2 1     
    2    1   20 1     
    3    1   21 1     
    4    1   22 1     
    5    2    3 1     
    6    2   23 1     
    7    2   24 1     
    8    3    4 1     
    9    4    9 ar    
   10    4    5 ar    
   11    5    6 ar    
   12    5   25 1     
   13    6    7 ar    
   14    6   17 1     
   15    7    8 ar    
   16    7   26 1     
   17    8    9 ar    
   18    8   10 1     
   19    9   27 1     
   20   10   15 2     
   21   10   11 1     
   22   11   12 1     
   23   11   13 2     
   24   12   28 1     
   25   12   29 1     
   26   12   30 1     
   27   13   14 1     
   28   14   15 1     
   29   15   16 1     
   30   16   31 1     
   31   16   32 1     
   32   16   33 1     
   33   17   18 ar    
   34   17   19 ar    
@<TRIPOS>SUBSTRUCTURE
      1 ****           1
