#       Name:                KS1
#       Creating user name   gbret
#       Creation time:       Fri Sep  9 11:01:17 2016


#       File generated by GOLD software.
#

@<TRIPOS>MOLECULE
KS1
    41    45     1
SMALL
NO_CHARGES


@<TRIPOS>ATOM
      1 N1          -3.1167   2.0330   0.4532 N.pl3          1 <1>                0.0000
      2 C2          -3.0984   0.6516   0.4419 C.ar           1 <1>                0.0000
      3 N3          -4.2253  -0.0457   0.5486 N.ar           1 <1>                0.0000
      4 C4          -4.2137  -1.3667   0.5384 C.ar           1 <1>                0.0000
      5 N5          -3.1063  -2.0666   0.4241 N.ar           1 <1>                0.0000
      6 C6          -1.9259  -1.4583   0.3115 C.ar           1 <1>                0.0000
      7 N7          -0.6388  -1.8875   0.1812 N.pl3          1 <1>                0.0000
      8 N8           0.2150  -0.7820   0.1043 N.2            1 <1>                0.0000
      9 C9          -0.4824   0.3265   0.1809 C.2            1 <1>                0.0000
     10 C10          0.0557   1.7075   0.1364 C.ar           1 <1>                0.0000
     11 C11         -0.3997   2.6743   1.0375 C.ar           1 <1>                0.0000
     12 N12          0.0639   3.9037   1.0151 N.ar           1 <1>                0.0000
     13 C13          0.9842   4.2897   0.1400 C.ar           1 <1>                0.0000
     14 N14          1.6183   5.4879  -0.0866 N.pl3          1 <1>                0.0000
     15 H15          1.4636   6.3027   0.4165 H              1 <1>                0.0000
     16 C16          2.5005   5.3629  -1.1260 C.2            1 <1>                0.0000
     17 C17          2.4725   4.1082  -1.6016 C.2            1 <1>                0.0000
     18 C18          1.4923   3.3721  -0.8002 C.ar           1 <1>                0.0000
     19 C19          1.0264   2.0570  -0.8008 C.ar           1 <1>                0.0000
     20 C20         -1.8894  -0.0511   0.3116 C.ar           1 <1>                0.0000
     21 C21         -0.2151  -3.2890   0.1301 C.3            1 <1>                0.0000
     22 C22          0.5659  -3.5578  -1.1728 C.3            1 <1>                0.0000
     23 C23          2.0518  -3.4055  -0.7632 C.3            1 <1>                0.0000
     24 C24          2.0822  -4.0326   0.6527 C.3            1 <1>                0.0000
     25 C25          0.7489  -3.5909   1.2908 C.3            1 <1>                0.0000
     26 H26         -2.2878   2.5298   0.3705 H              1 <1>                0.0000
     27 H27         -3.9591   2.5062   0.5399 H              1 <1>                0.0000
     28 H28         -5.1523  -1.8935   0.6281 H              1 <1>                0.0000
     29 H29         -1.1488   2.4052   1.7675 H              1 <1>                0.0000
     30 H30          3.1260   6.1565  -1.5071 H              1 <1>                0.0000
     31 H31          3.0599   3.7165  -2.4188 H              1 <1>                0.0000
     32 H32          1.4039   1.3330  -1.5077 H              1 <1>                0.0000
     33 H33         -1.0846  -3.9439   0.1870 H              1 <1>                0.0000
     34 H34          0.3711  -4.5681  -1.5328 H              1 <1>                0.0000
     35 H35          0.3027  -2.8232  -1.9338 H              1 <1>                0.0000
     36 H36          2.6989  -3.9581  -1.4444 H              1 <1>                0.0000
     37 H37          2.3364  -2.3539  -0.7261 H              1 <1>                0.0000
     38 H38          2.1322  -5.1195   0.5875 H              1 <1>                0.0000
     39 H39          2.9255  -3.6445   1.2239 H              1 <1>                0.0000
     40 H40          0.9016  -2.6946   1.8921 H              1 <1>                0.0000
     41 H41          0.3477  -4.3929   1.9105 H              1 <1>                0.0000
@<TRIPOS>BOND
    1    1    2 1     
    2    1   26 1     
    3    1   27 1     
    4    2   20 ar    
    5    2    3 ar    
    6    3    4 ar    
    7    4    5 ar    
    8    4   28 1     
    9    5    6 ar    
   10    6   20 ar    
   11    6    7 1     
   12    7    8 1     
   13    7   21 1     
   14    8    9 2     
   15    9   10 1     
   16    9   20 1     
   17   10   19 ar    
   18   10   11 ar    
   19   11   12 ar    
   20   11   29 1     
   21   12   13 ar    
   22   13   18 ar    
   23   13   14 1     
   24   14   15 1     
   25   14   16 1     
   26   16   17 2     
   27   16   30 1     
   28   17   18 1     
   29   17   31 1     
   30   18   19 ar    
   31   19   32 1     
   32   21   25 1     
   33   21   22 1     
   34   21   33 1     
   35   22   23 1     
   36   22   34 1     
   37   22   35 1     
   38   23   24 1     
   39   23   36 1     
   40   23   37 1     
   41   24   25 1     
   42   24   38 1     
   43   24   39 1     
   44   25   40 1     
   45   25   41 1     
@<TRIPOS>SUBSTRUCTURE
      1 ****           1
@<TRIPOS>SET
DONOR_HYDROGENS      STATIC     ATOMS    <user>   **** ""
3 26 27 15
ATOM$RED        STATIC     ATOMS    COLORGROUP SYSTEM
3 26 27 15
