#       Name:                KTZ
#       Creating user name   gbret
#       Creation time:       Fri Sep  9 11:03:18 2016


#       File generated by GOLD software.
#

@<TRIPOS>MOLECULE
KTZ
    44    47     1
SMALL
NO_CHARGES


@<TRIPOS>ATOM
      1 C1           0.9461   3.4703  -1.2555 C.3            1 <1>                0.0000
      2 N2           0.4852   2.7952  -0.0349 N.3            1 <1>                0.0000
      3 C3           0.6103   3.6767   1.1335 C.3            1 <1>                0.0000
      4 C4          -0.8140   2.3441  -0.1786 C.ar           1 <1>                0.0000
      5 N5          -1.8182   3.2013  -0.3333 N.ar           1 <1>                0.0000
      6 C6          -3.0661   2.7717  -0.4714 C.ar           1 <1>                0.0000
      7 N7          -4.0774   3.7039  -0.6302 N.pl3          1 <1>                0.0000
      8 N8          -3.3806   1.4872  -0.4636 N.ar           1 <1>                0.0000
      9 C9          -2.4383   0.5566  -0.3139 C.ar           1 <1>                0.0000
     10 N10         -2.4615  -0.8116  -0.2668 N.pl3          1 <1>                0.0000
     11 H11         -3.2606  -1.3556  -0.3457 H              1 <1>                0.0000
     12 C12         -1.1870  -1.3049  -0.0918 C.2            1 <1>                0.0000
     13 C13         -0.3016  -0.2496  -0.0212 C.2            1 <1>                0.0000
     14 C14          1.1648  -0.3323   0.1618 C.ar           1 <1>                0.0000
     15 C15          1.7518   0.1381   1.3371 C.ar           1 <1>                0.0000
     16 C16          3.1192   0.0578   1.5017 C.ar           1 <1>                0.0000
     17 C17          3.9082  -0.4873   0.5044 C.ar           1 <1>                0.0000
     18 C18          3.3323  -0.9555  -0.6633 C.ar           1 <1>                0.0000
     19 C19          1.9654  -0.8862  -0.8378 C.ar           1 <1>                0.0000
     20 C20         -1.1021   0.9708  -0.1703 C.ar           1 <1>                0.0000
     21 C21         -0.8272  -2.7329   0.0055 C.ar           1 <1>                0.0000
     22 C22          0.0566  -3.1681   0.9960 C.ar           1 <1>                0.0000
     23 C23          0.3881  -4.5042   1.0812 C.ar           1 <1>                0.0000
     24 C24         -0.1523  -5.4128   0.1883 C.ar           1 <1>                0.0000
     25 C25         -1.0280  -4.9888  -0.7957 C.ar           1 <1>                0.0000
     26 C26         -1.3732  -3.6567  -0.8889 C.ar           1 <1>                0.0000
     27 H27          1.9926   3.7529  -1.1413 H              1 <1>                0.0000
     28 H28          0.8427   2.7954  -2.1051 H              1 <1>                0.0000
     29 H29          0.3451   4.3636  -1.4256 H              1 <1>                0.0000
     30 H30          0.0312   4.5850   0.9670 H              1 <1>                0.0000
     31 H31          0.2340   3.1630   2.0182 H              1 <1>                0.0000
     32 H32          1.6584   3.9362   1.2824 H              1 <1>                0.0000
     33 H33         -3.8672   4.6508  -0.6390 H              1 <1>                0.0000
     34 H34         -4.9961   3.4101  -0.7326 H              1 <1>                0.0000
     35 H35          1.1370   0.5645   2.1160 H              1 <1>                0.0000
     36 H36          3.5748   0.4215   2.4109 H              1 <1>                0.0000
     37 H37          4.9782  -0.5473   0.6378 H              1 <1>                0.0000
     38 H38          3.9536  -1.3799  -1.4380 H              1 <1>                0.0000
     39 H39          1.5170  -1.2519  -1.7497 H              1 <1>                0.0000
     40 H40          0.4796  -2.4599   1.6931 H              1 <1>                0.0000
     41 H41          1.0712  -4.8420   1.8465 H              1 <1>                0.0000
     42 H42          0.1111  -6.4578   0.2594 H              1 <1>                0.0000
     43 H43         -1.4454  -5.7033  -1.4898 H              1 <1>                0.0000
     44 H44         -2.0571  -3.3272  -1.6572 H              1 <1>                0.0000
@<TRIPOS>BOND
    1    1    2 1     
    2    1   27 1     
    3    1   28 1     
    4    1   29 1     
    5    2    3 1     
    6    2    4 1     
    7    3   30 1     
    8    3   31 1     
    9    3   32 1     
   10    4   20 ar    
   11    4    5 ar    
   12    5    6 ar    
   13    6    7 1     
   14    6    8 ar    
   15    7   33 1     
   16    7   34 1     
   17    8    9 ar    
   18    9   20 ar    
   19    9   10 1     
   20   10   11 1     
   21   10   12 1     
   22   12   13 2     
   23   12   21 1     
   24   13   14 1     
   25   13   20 1     
   26   14   19 ar    
   27   14   15 ar    
   28   15   16 ar    
   29   15   35 1     
   30   16   17 ar    
   31   16   36 1     
   32   17   18 ar    
   33   17   37 1     
   34   18   19 ar    
   35   18   38 1     
   36   19   39 1     
   37   21   26 ar    
   38   21   22 ar    
   39   22   23 ar    
   40   22   40 1     
   41   23   24 ar    
   42   23   41 1     
   43   24   25 ar    
   44   24   42 1     
   45   25   26 ar    
   46   25   43 1     
   47   26   44 1     
@<TRIPOS>SUBSTRUCTURE
      1 ****           1
@<TRIPOS>SET
DONOR_HYDROGENS      STATIC     ATOMS    <user>   **** ""
3 33 34 11
ATOM$RED        STATIC     ATOMS    COLORGROUP SYSTEM
3 33 34 11
