#       Name:                L0R
#       Creating user name   gbret
#       Creation time:       Fri Sep  9 11:06:32 2016


#       File generated by GOLD software.
#

@<TRIPOS>MOLECULE
L0R
    54    57     1
SMALL
NO_CHARGES


@<TRIPOS>ATOM
      1 O1           0.8178  -0.5603  -0.3094 O.2            1 <1>                0.0000
      2 C2           0.9035   0.6300  -0.0931 C.2            1 <1>                0.0000
      3 C3           1.8625   1.1387   0.9521 C.3            1 <1>                0.0000
      4 O4           2.5507   0.0353   1.5445 O.3            1 <1>                0.0000
      5 C5           3.4590   0.3230   2.5136 C.ar           1 <1>                0.0000
      6 C6           3.6791   1.6399   2.8907 C.ar           1 <1>                0.0000
      7 C7           4.6026   1.9297   3.8764 C.ar           1 <1>                0.0000
      8 C8           5.3076   0.9087   4.4866 C.ar           1 <1>                0.0000
      9 C9           5.0903  -0.4044   4.1123 C.ar           1 <1>                0.0000
     10 C10          4.1635  -0.7000   3.1315 C.ar           1 <1>                0.0000
     11 N11          0.1451   1.4981  -0.7914 N.am           1 <1>                0.0000
     12 C12          0.1456   2.9290  -0.4578 C.3            1 <1>                0.0000
     13 C13          0.4659   3.7303  -1.7236 C.3            1 <1>                0.0000
     14 C14         -0.5180   3.3432  -2.8301 C.3            1 <1>                0.0000
     15 C15         -0.3682   1.8542  -3.1502 C.3            1 <1>                0.0000
     16 C16         -0.6933   1.0326  -1.9045 C.3            1 <1>                0.0000
     17 C17         -0.4158  -0.4241  -2.1735 C.2            1 <1>                0.0000
     18 O18          0.6894  -0.7754  -2.5283 O.2            1 <1>                0.0000
     19 N19         -1.3959  -1.3363  -2.0197 N.am           1 <1>                0.0000
     20 C20         -1.1557  -2.7675  -2.2685 C.3            1 <1>                0.0000
     21 C21         -1.3348  -3.5106  -0.9455 C.3            1 <1>                0.0000
     22 C22         -2.6041  -3.0821  -0.2575 C.ar           1 <1>                0.0000
     23 C23         -3.1332  -3.9322   0.7063 C.ar           1 <1>                0.0000
     24 C24         -4.2879  -3.5956   1.3809 C.ar           1 <1>                0.0000
     25 C25         -4.9261  -2.4018   1.0989 C.ar           1 <1>                0.0000
     26 C26         -4.4050  -1.5577   0.1402 C.ar           1 <1>                0.0000
     27 C27         -3.2458  -1.8982  -0.5438 C.ar           1 <1>                0.0000
     28 C28         -2.7430  -0.9439  -1.5919 C.3            1 <1>                0.0000
     29 H29          2.5845   1.8098   0.4869 H              1 <1>                0.0000
     30 H30          1.3093   1.6773   1.7215 H              1 <1>                0.0000
     31 H31          3.1292   2.4377   2.4138 H              1 <1>                0.0000
     32 H32          4.7743   2.9546   4.1703 H              1 <1>                0.0000
     33 H33          6.0294   1.1374   5.2568 H              1 <1>                0.0000
     34 H34          5.6425  -1.2001   4.5902 H              1 <1>                0.0000
     35 H35          3.9941  -1.7259   2.8394 H              1 <1>                0.0000
     36 H36         -0.8361   3.2169  -0.0817 H              1 <1>                0.0000
     37 H37          0.9024   3.1270   0.3013 H              1 <1>                0.0000
     38 H38          0.3750   4.7958  -1.5124 H              1 <1>                0.0000
     39 H39          1.4828   3.5084  -2.0470 H              1 <1>                0.0000
     40 H40         -1.5364   3.5423  -2.4965 H              1 <1>                0.0000
     41 H41         -0.3078   3.9298  -3.7244 H              1 <1>                0.0000
     42 H42         -1.0527   1.5843  -3.9544 H              1 <1>                0.0000
     43 H43          0.6566   1.6500  -3.4602 H              1 <1>                0.0000
     44 H44         -1.7433   1.1645  -1.6435 H              1 <1>                0.0000
     45 H45         -1.8722  -3.1399  -3.0006 H              1 <1>                0.0000
     46 H46         -0.1406  -2.9122  -2.6382 H              1 <1>                0.0000
     47 H47         -1.3763  -4.5825  -1.1393 H              1 <1>                0.0000
     48 H48         -0.4855  -3.2971  -0.2965 H              1 <1>                0.0000
     49 H49         -2.6359  -4.8647   0.9287 H              1 <1>                0.0000
     50 H50         -4.6926  -4.2626   2.1278 H              1 <1>                0.0000
     51 H51         -5.8284  -2.1313   1.6271 H              1 <1>                0.0000
     52 H52         -4.9028  -0.6249  -0.0802 H              1 <1>                0.0000
     53 H53         -2.7134   0.0647  -1.1799 H              1 <1>                0.0000
     54 H54         -3.4124  -0.9642  -2.4520 H              1 <1>                0.0000
@<TRIPOS>BOND
    1    1    2 2     
    2    2    3 1     
    3    2   11 am    
    4    3    4 1     
    5    3   29 1     
    6    3   30 1     
    7    4    5 1     
    8    5   10 ar    
    9    5    6 ar    
   10    6    7 ar    
   11    6   31 1     
   12    7    8 ar    
   13    7   32 1     
   14    8    9 ar    
   15    8   33 1     
   16    9   10 ar    
   17    9   34 1     
   18   10   35 1     
   19   11   16 1     
   20   11   12 1     
   21   12   13 1     
   22   12   36 1     
   23   12   37 1     
   24   13   14 1     
   25   13   38 1     
   26   13   39 1     
   27   14   15 1     
   28   14   40 1     
   29   14   41 1     
   30   15   16 1     
   31   15   42 1     
   32   15   43 1     
   33   16   17 1     
   34   16   44 1     
   35   17   18 2     
   36   17   19 am    
   37   19   28 1     
   38   19   20 1     
   39   20   21 1     
   40   20   45 1     
   41   20   46 1     
   42   21   22 1     
   43   21   47 1     
   44   21   48 1     
   45   22   27 ar    
   46   22   23 ar    
   47   23   24 ar    
   48   23   49 1     
   49   24   25 ar    
   50   24   50 1     
   51   25   26 ar    
   52   25   51 1     
   53   26   27 ar    
   54   26   52 1     
   55   27   28 1     
   56   28   53 1     
   57   28   54 1     
@<TRIPOS>SUBSTRUCTURE
      1 ****           1
