#       Name:                L3O
#       Creating user name   gbret
#       Creation time:       Fri Sep  9 11:10:15 2016


#       File generated by GOLD software.
#

@<TRIPOS>MOLECULE
L3O
    26    25     1
SMALL
NO_CHARGES


@<TRIPOS>ATOM
      1 C1          -0.1759   1.5867  -1.6720 C.3            1 <1>                0.0000
      2 C2          -0.1551   0.0568  -1.6804 C.3            1 <1>                0.0000
      3 C3           0.5610  -0.4366  -2.9392 C.3            1 <1>                0.0000
      4 C4           0.5849  -0.4500  -0.4409 C.3            1 <1>                0.0000
      5 C5          -0.1988  -0.0627   0.8149 C.3            1 <1>                0.0000
      6 N6          -1.4908  -0.7617   0.8207 N.4            1 <1>                0.0000
      7 H7          -2.0183  -0.5004   0.0012 H              1 <1>                0.0000
      8 H8          -1.3341  -1.7584   0.8162 H              1 <1>                0.0000
      9 H9          -2.0076  -0.5063   1.6488 H              1 <1>                0.0000
     10 C10          0.6010  -0.4589   2.0576 C.3            1 <1>                0.0000
     11 O11          1.8579   0.2210   2.0519 O.3            1 <1>                0.0000
     12 C12         -0.1709  -0.0774   3.2944 C.2            1 <1>                0.0000
     13 O13         -1.2357  -0.6184   3.5395 O.co2          1 <1>                0.0000
     14 O14          0.2695   0.7721   4.0500 O.co2          1 <1>                0.0000
     15 H15          0.8467   1.9640  -1.6797 H              1 <1>                0.0000
     16 H16         -0.7031   1.9477  -2.5550 H              1 <1>                0.0000
     17 H17         -0.6861   1.9382  -0.7752 H              1 <1>                0.0000
     18 H18         -1.1777  -0.3205  -1.6726 H              1 <1>                0.0000
     19 H19          1.5836  -0.0593  -2.9469 H              1 <1>                0.0000
     20 H20          0.5758  -1.5265  -2.9452 H              1 <1>                0.0000
     21 H21          0.0338  -0.0755  -3.8222 H              1 <1>                0.0000
     22 H22          0.6774  -1.5349  -0.4912 H              1 <1>                0.0000
     23 H23          1.5778  -0.0021  -0.4020 H              1 <1>                0.0000
     24 H24         -0.3682   1.0140   0.8198 H              1 <1>                0.0000
     25 H25          0.7704  -1.5356   2.0526 H              1 <1>                0.0000
     26 H26          1.7835   1.1852   2.0558 H              1 <1>                0.0000
@<TRIPOS>BOND
    1    1    2 1     
    2    1   15 1     
    3    1   16 1     
    4    1   17 1     
    5    2    3 1     
    6    2    4 1     
    7    2   18 1     
    8    3   19 1     
    9    3   20 1     
   10    3   21 1     
   11    4    5 1     
   12    4   22 1     
   13    4   23 1     
   14    5    6 1     
   15    5   10 1     
   16    5   24 1     
   17    6    7 1     
   18    6    8 1     
   19    6    9 1     
   20   10   11 1     
   21   10   12 1     
   22   10   25 1     
   23   11   26 1     
   24   12   13 ar    
   25   12   14 ar    
@<TRIPOS>SUBSTRUCTURE
      1 ****           1
@<TRIPOS>SET
DONOR_HYDROGENS      STATIC     ATOMS    <user>   **** ""
4 7 8 9 26
ATOM$RED        STATIC     ATOMS    COLORGROUP SYSTEM
4 7 8 9 26
