#       Name:                L5T
#       Creating user name   gbret
#       Creation time:       Fri Sep  9 11:12:05 2016


#       File generated by GOLD software.
#

@<TRIPOS>MOLECULE
L5T
   105   110     1
SMALL
NO_CHARGES


@<TRIPOS>ATOM
      1 C1          -7.1387   3.5364   6.3059 C.3            1 <1>                0.0000
      2 O2          -6.8779   2.1909   5.9013 O.3            1 <1>                0.0000
      3 C3          -5.9795   2.0116   4.8984 C.ar           1 <1>                0.0000
      4 C4          -5.3574   3.1225   4.3210 C.ar           1 <1>                0.0000
      5 C5          -4.4539   2.9699   3.3145 C.ar           1 <1>                0.0000
      6 C6          -4.1387   1.6859   2.8472 C.ar           1 <1>                0.0000
      7 C7          -3.2030   1.4974   1.8027 C.ar           1 <1>                0.0000
      8 O8          -2.5837   2.5558   1.2236 O.3            1 <1>                0.0000
      9 C9          -1.6540   2.2701   0.1766 C.3            1 <1>                0.0000
     10 C10         -1.4805   3.4933  -0.7620 C.3            1 <1>                0.0000
     11 C11         -0.0602   3.2932  -1.3316 C.3            1 <1>                0.0000
     12 N12          0.6683   2.4268  -0.3934 N.am           1 <1>                0.0000
     13 C13         -0.2199   2.1029   0.7378 C.3            1 <1>                0.0000
     14 C14          1.9374   1.9989  -0.5432 C.2            1 <1>                0.0000
     15 O15          2.5473   2.2537  -1.5601 O.2            1 <1>                0.0000
     16 C16          2.5988   1.2036   0.5528 C.3            1 <1>                0.0000
     17 N17          3.5622   0.2694  -0.0349 N.am           1 <1>                0.0000
     18 C18          3.8984  -0.8562   0.6257 C.2            1 <1>                0.0000
     19 O19          3.4024  -1.0962   1.7088 O.2            1 <1>                0.0000
     20 O20          4.7837  -1.7148   0.0857 O.3            1 <1>                0.0000
     21 C21          5.0987  -2.9065   0.8531 C.3            1 <1>                0.0000
     22 C22          4.2187  -4.0954   0.3936 C.3            1 <1>                0.0000
     23 C23          5.0554  -5.3260   0.8233 C.3            1 <1>                0.0000
     24 C24          6.5139  -4.9079   0.5445 C.3            1 <1>                0.0000
     25 C25          6.5414  -3.3695   0.5635 C.3            1 <1>                0.0000
     26 C26          3.3265   2.1548   1.5051 C.3            1 <1>                0.0000
     27 C27          2.3117   3.0899   2.1659 C.3            1 <1>                0.0000
     28 C28          4.0494   1.3436   2.5822 C.3            1 <1>                0.0000
     29 C29          4.3459   2.9819   0.7193 C.3            1 <1>                0.0000
     30 C30         -0.1387   2.6326  -2.6838 C.2            1 <1>                0.0000
     31 O31          0.3749   1.5481  -2.8596 O.2            1 <1>                0.0000
     32 N32         -0.7797   3.2469  -3.6978 N.am           1 <1>                0.0000
     33 C33         -0.8560   2.6047  -5.0123 C.3            1 <1>                0.0000
     34 C34         -2.2278   2.1151  -5.4808 C.3            1 <1>                0.0000
     35 C35         -1.5973   3.3529  -6.1221 C.3            1 <1>                0.0000
     36 C36         -2.1931   4.6940  -5.7794 C.2            1 <1>                0.0000
     37 C37         -1.8068   5.7666  -6.4247 C.2            1 <1>                0.0000
     38 C38          0.3471   1.7878  -5.4074 C.2            1 <1>                0.0000
     39 O39          1.4400   2.0422  -4.9306 O.co2          1 <1>                0.0000
     40 O40          0.2276   0.8724  -6.2039 O.co2          1 <1>                0.0000
     41 C41         -2.9389   0.2175   1.3923 C.ar           1 <1>                0.0000
     42 C42         -3.5914  -0.8592   2.0068 C.ar           1 <1>                0.0000
     43 N43         -4.4642  -0.6731   2.9820 N.ar           1 <1>                0.0000
     44 C44         -4.7626   0.5534   3.4250 C.ar           1 <1>                0.0000
     45 C45         -5.6875   0.7379   4.4658 C.ar           1 <1>                0.0000
     46 C46         -3.2970  -2.2375   1.5530 C.2            1 <1>                0.0000
     47 C47         -3.8910  -3.3178   2.0951 C.2            1 <1>                0.0000
     48 S48         -3.2722  -4.7537   1.2829 S.3            1 <1>                0.0000
     49 C49         -2.2494  -3.7424   0.2673 C.2            1 <1>                0.0000
     50 N50         -1.3864  -4.2077  -0.7171 N.am           1 <1>                0.0000
     51 C51         -1.2853  -5.5306  -0.9542 C.2            1 <1>                0.0000
     52 O52         -1.9476  -6.3148  -0.3084 O.2            1 <1>                0.0000
     53 C53         -0.3491  -6.0353  -2.0220 C.3            1 <1>                0.0000
     54 C54          1.0820  -5.6091  -1.6885 C.3            1 <1>                0.0000
     55 C55         -0.4247  -7.5621  -2.0864 C.3            1 <1>                0.0000
     56 N56         -2.4299  -2.4971   0.5758 N.2            1 <1>                0.0000
     57 H57         -6.2143   3.9964   6.6551 H              1 <1>                0.0000
     58 H58         -7.5284   4.1014   5.4591 H              1 <1>                0.0000
     59 H59         -7.8724   3.5376   7.1120 H              1 <1>                0.0000
     60 H60         -5.5968   4.1134   4.6775 H              1 <1>                0.0000
     61 H61         -3.9808   3.8363   2.8763 H              1 <1>                0.0000
     62 H62         -1.9596   1.3868  -0.3841 H              1 <1>                0.0000
     63 H63         -2.2223   3.4750  -1.5605 H              1 <1>                0.0000
     64 H64         -1.5422   4.4240  -0.1981 H              1 <1>                0.0000
     65 H65          0.4445   4.2556  -1.4157 H              1 <1>                0.0000
     66 H66         -0.0520   2.7957   1.5624 H              1 <1>                0.0000
     67 H67         -0.0580   1.0759   1.0652 H              1 <1>                0.0000
     68 H68          1.8420   0.6459   1.1044 H              1 <1>                0.0000
     69 H69          3.9581   0.4610  -0.8994 H              1 <1>                0.0000
     70 H70          4.9647  -2.7195   1.9185 H              1 <1>                0.0000
     71 H71          3.2566  -4.0845   0.9057 H              1 <1>                0.0000
     72 H72          4.0821  -4.0797  -0.6877 H              1 <1>                0.0000
     73 H73          4.9137  -5.5320   1.8842 H              1 <1>                0.0000
     74 H74          4.7874  -6.1972   0.2255 H              1 <1>                0.0000
     75 H75          7.1702  -5.3027   1.3201 H              1 <1>                0.0000
     76 H76          6.8272  -5.2749  -0.4328 H              1 <1>                0.0000
     77 H77          6.8681  -2.9900  -0.4047 H              1 <1>                0.0000
     78 H78          7.2111  -3.0177   1.3482 H              1 <1>                0.0000
     79 H79          1.6700   2.5157   2.8342 H              1 <1>                0.0000
     80 H80          2.8396   3.8539   2.7367 H              1 <1>                0.0000
     81 H81          1.7026   3.5663   1.3977 H              1 <1>                0.0000
     82 H82          4.7724   0.6775   2.1114 H              1 <1>                0.0000
     83 H83          4.5678   2.0212   3.2606 H              1 <1>                0.0000
     84 H84          3.3232   0.7544   3.1420 H              1 <1>                0.0000
     85 H85          3.8309   3.5598  -0.0481 H              1 <1>                0.0000
     86 H86          4.8643   3.6595   1.3977 H              1 <1>                0.0000
     87 H87          5.0688   2.3157   0.2485 H              1 <1>                0.0000
     88 H88         -1.1905   4.1143  -3.5572 H              1 <1>                0.0000
     89 H89         -2.2602   1.2017  -6.0748 H              1 <1>                0.0000
     90 H90         -3.0734   2.2708  -4.8110 H              1 <1>                0.0000
     91 H91         -1.2150   3.2539  -7.1381 H              1 <1>                0.0000
     92 H92         -2.9386   4.7709  -5.0017 H              1 <1>                0.0000
     93 H93         -1.0613   5.6897  -7.2024 H              1 <1>                0.0000
     94 H94         -2.2337   6.7277  -6.1791 H              1 <1>                0.0000
     95 H95         -2.2300   0.0389   0.5973 H              1 <1>                0.0000
     96 H96         -6.1697  -0.1143   4.9214 H              1 <1>                0.0000
     97 H97         -4.6208  -3.3060   2.8911 H              1 <1>                0.0000
     98 H98         -0.8566  -3.5805  -1.2336 H              1 <1>                0.0000
     99 H99         -0.6378  -5.6162  -2.9859 H              1 <1>                0.0000
    100 H100         1.1358  -4.5214  -1.6426 H              1 <1>                0.0000
    101 H101         1.3706  -6.0282  -0.7246 H              1 <1>                0.0000
    102 H102         1.7591  -5.9741  -2.4608 H              1 <1>                0.0000
    103 H103        -1.4443  -7.8657  -2.3239 H              1 <1>                0.0000
    104 H104         0.2524  -7.9271  -2.8587 H              1 <1>                0.0000
    105 H105        -0.1361  -7.9811  -1.1224 H              1 <1>                0.0000
@<TRIPOS>BOND
    1    1    2 1     
    2    1   57 1     
    3    1   58 1     
    4    1   59 1     
    5    2    3 1     
    6    3   45 ar    
    7    3    4 ar    
    8    4    5 ar    
    9    4   60 1     
   10    5    6 ar    
   11    5   61 1     
   12    6   44 ar    
   13    6    7 ar    
   14    7    8 1     
   15    7   41 ar    
   16    8    9 1     
   17    9   13 1     
   18    9   10 1     
   19    9   62 1     
   20   10   11 1     
   21   10   63 1     
   22   10   64 1     
   23   11   12 1     
   24   11   30 1     
   25   11   65 1     
   26   12   13 1     
   27   12   14 am    
   28   13   66 1     
   29   13   67 1     
   30   14   15 2     
   31   14   16 1     
   32   16   17 1     
   33   16   26 1     
   34   16   68 1     
   35   17   18 am    
   36   17   69 1     
   37   18   19 2     
   38   18   20 1     
   39   20   21 1     
   40   21   25 1     
   41   21   22 1     
   42   21   70 1     
   43   22   23 1     
   44   22   71 1     
   45   22   72 1     
   46   23   24 1     
   47   23   73 1     
   48   23   74 1     
   49   24   25 1     
   50   24   75 1     
   51   24   76 1     
   52   25   77 1     
   53   25   78 1     
   54   26   27 1     
   55   26   28 1     
   56   26   29 1     
   57   27   79 1     
   58   27   80 1     
   59   27   81 1     
   60   28   82 1     
   61   28   83 1     
   62   28   84 1     
   63   29   85 1     
   64   29   86 1     
   65   29   87 1     
   66   30   31 2     
   67   30   32 am    
   68   32   33 1     
   69   32   88 1     
   70   33   35 1     
   71   33   34 1     
   72   33   38 1     
   73   34   35 1     
   74   34   89 1     
   75   34   90 1     
   76   35   36 1     
   77   35   91 1     
   78   36   37 2     
   79   36   92 1     
   80   37   93 1     
   81   37   94 1     
   82   38   39 ar    
   83   38   40 ar    
   84   41   42 ar    
   85   41   95 1     
   86   42   43 ar    
   87   42   46 1     
   88   43   44 ar    
   89   44   45 ar    
   90   45   96 1     
   91   46   56 1     
   92   46   47 2     
   93   47   48 1     
   94   47   97 1     
   95   48   49 1     
   96   49   50 1     
   97   49   56 2     
   98   50   51 am    
   99   50   98 1     
  100   51   52 2     
  101   51   53 1     
  102   53   54 1     
  103   53   55 1     
  104   53   99 1     
  105   54  100 1     
  106   54  101 1     
  107   54  102 1     
  108   55  103 1     
  109   55  104 1     
  110   55  105 1     
@<TRIPOS>SUBSTRUCTURE
      1 ****           1
@<TRIPOS>SET
DONOR_HYDROGENS      STATIC     ATOMS    <user>   **** ""
3 69 88 98
ATOM$RED        STATIC     ATOMS    COLORGROUP SYSTEM
3 69 88 98
