#       Name:                LAA
#       Creating user name   gbret
#       Creation time:       Fri Sep  9 11:16:05 2016


#       File generated by GOLD software.
#

@<TRIPOS>MOLECULE
LAA
    18    17     1
SMALL
NO_CHARGES


@<TRIPOS>ATOM
      1 N1           1.3492   2.0233  -0.4521 N.am           1 <1>                0.0000
      2 C2           1.3675   0.6756  -0.4595 C.2            1 <1>                0.0000
      3 O3           2.4259   0.0836  -0.4728 O.2            1 <1>                0.0000
      4 C4           0.0728  -0.0956  -0.4513 C.3            1 <1>                0.0000
      5 N5           0.3135  -1.4617  -0.9346 N.4            1 <1>                0.0000
      6 H6           0.9812  -1.9190  -0.3319 H              1 <1>                0.0000
      7 H7          -0.5534  -1.9780  -0.9291 H              1 <1>                0.0000
      8 H8           0.6780  -1.4265  -1.8748 H              1 <1>                0.0000
      9 C9          -0.4800  -0.1490   0.9744 C.3            1 <1>                0.0000
     10 O10         -0.7141   1.1800   1.4446 O.3            1 <1>                0.0000
     11 C11         -1.7747  -0.9202   0.9826 C.2            1 <1>                0.0000
     12 O12         -1.7792  -2.1069   0.7030 O.co2          1 <1>                0.0000
     13 O13         -2.8177  -0.3574   1.2689 O.co2          1 <1>                0.0000
     14 H14          2.1826   2.5196  -0.4614 H              1 <1>                0.0000
     15 H15          0.5027   2.4968  -0.4415 H              1 <1>                0.0000
     16 H16         -0.6485   0.3984  -1.1023 H              1 <1>                0.0000
     17 H17          0.2413  -0.6429   1.6255 H              1 <1>                0.0000
     18 H18         -1.3474   1.6799   0.9116 H              1 <1>                0.0000
@<TRIPOS>BOND
    1    1    2 am    
    2    1   14 1     
    3    1   15 1     
    4    2    3 2     
    5    2    4 1     
    6    4    5 1     
    7    4    9 1     
    8    4   16 1     
    9    5    6 1     
   10    5    7 1     
   11    5    8 1     
   12    9   10 1     
   13    9   11 1     
   14    9   17 1     
   15   10   18 1     
   16   11   12 ar    
   17   11   13 ar    
@<TRIPOS>SUBSTRUCTURE
      1 ****           1
@<TRIPOS>SET
DONOR_HYDROGENS      STATIC     ATOMS    <user>   **** ""
6 14 15 6 7 8 18
ATOM$RED        STATIC     ATOMS    COLORGROUP SYSTEM
6 14 15 6 7 8 18
