#       Name:                LC6
#       Creating user name   gbret
#       Creation time:       Fri Sep  9 11:18:55 2016


#       File generated by GOLD software.
#

@<TRIPOS>MOLECULE
LC6
   109   115     1
SMALL
NO_CHARGES


@<TRIPOS>ATOM
      1 C1          -9.3819   3.3407  -6.0913 C.3            1 <1>                0.0000
      2 N2          -8.7867   2.0087  -5.9192 N.4            1 <1>                0.0000
      3 H3          -9.5194   1.3166  -5.8715 H              1 <1>                0.0000
      4 C4          -7.9081   1.7139  -7.0590 C.3            1 <1>                0.0000
      5 C5          -8.0036   1.9791  -4.6767 C.3            1 <1>                0.0000
      6 C6          -8.9389   2.1623  -3.4799 C.3            1 <1>                0.0000
      7 C7          -8.1232   2.1315  -2.1858 C.3            1 <1>                0.0000
      8 C8          -9.0383   2.4385  -0.9987 C.3            1 <1>                0.0000
      9 S9          -8.0470   2.5479   0.5165 S.3            1 <1>                0.0000
     10 C10         -9.2513   2.9006   1.7535 C.ar           1 <1>                0.0000
     11 C11        -10.5923   3.0155   1.4073 C.ar           1 <1>                0.0000
     12 C12        -11.5333   3.2920   2.3793 C.ar           1 <1>                0.0000
     13 C13        -11.1426   3.4546   3.6960 C.ar           1 <1>                0.0000
     14 C14         -9.8089   3.3414   4.0441 C.ar           1 <1>                0.0000
     15 C15         -8.8631   3.0590   3.0785 C.ar           1 <1>                0.0000
     16 N16         -7.5297   0.8031  -2.0141 N.pl3          1 <1>                0.0000
     17 C17         -6.3141   0.4965  -2.6299 C.ar           1 <1>                0.0000
     18 C18         -5.6092   1.4826  -3.3087 C.ar           1 <1>                0.0000
     19 C19         -4.4076   1.1762  -3.9160 C.ar           1 <1>                0.0000
     20 C20         -3.9055  -0.1108  -3.8490 C.ar           1 <1>                0.0000
     21 C21         -4.6047  -1.0948  -3.1747 C.ar           1 <1>                0.0000
     22 C22         -5.8045  -0.7937  -2.5601 C.ar           1 <1>                0.0000
     23 N23         -6.5523  -1.8476  -1.8386 N.pl3          1 <1>                0.0000
     24 O24         -7.1334  -1.5807  -0.8019 O.2            1 <1>                0.0000
     25 O25         -6.5866  -2.9817  -2.2814 O.2            1 <1>                0.0000
     26 S26         -2.3718  -0.4975  -4.6253 S.o2           1 <1>                0.0000
     27 O27         -2.3895  -1.8965  -4.8741 O.2            1 <1>                0.0000
     28 O28         -2.1839   0.4714  -5.6476 O.2            1 <1>                0.0000
     29 N29         -1.1774  -0.2363  -3.5083 N.am           1 <1>                0.0000
     30 C30         -1.1177  -0.9947  -2.3958 C.2            1 <1>                0.0000
     31 O31         -1.9406  -1.8706  -2.2122 O.2            1 <1>                0.0000
     32 C32         -0.0528  -0.7618  -1.3999 C.ar           1 <1>                0.0000
     33 C33          0.8901   0.2493  -1.6083 C.ar           1 <1>                0.0000
     34 C34          1.8749   0.4651  -0.6869 C.ar           1 <1>                0.0000
     35 C35          1.9402  -0.3252   0.4649 C.ar           1 <1>                0.0000
     36 C36          0.9973  -1.3362   0.6731 C.ar           1 <1>                0.0000
     37 C37          1.0671  -2.1877   1.9145 C.3            1 <1>                0.0000
     38 C38          0.0091  -1.5484  -0.2462 C.ar           1 <1>                0.0000
     39 C39          3.0044  -0.0925   1.4602 C.2            1 <1>                0.0000
     40 C40          2.6735   0.1378   2.7626 C.2            1 <1>                0.0000
     41 C41          3.6707   0.3599   3.7193 C.2            1 <1>                0.0000
     42 C42          4.9803   0.3452   3.3427 C.2            1 <1>                0.0000
     43 C43          5.3112   0.1066   1.9955 C.2            1 <1>                0.0000
     44 C44          6.5226   0.0318   1.3210 C.2            1 <1>                0.0000
     45 C45          7.9044   0.1985   1.8989 C.3            1 <1>                0.0000
     46 C46          8.4321  -1.1618   2.3595 C.3            1 <1>                0.0000
     47 C47          9.8349  -0.9925   2.9462 C.3            1 <1>                0.0000
     48 O48         10.3278  -2.2630   3.3764 O.3            1 <1>                0.0000
     49 C49         11.5696  -2.2888   3.9254 C.ar           1 <1>                0.0000
     50 C50         12.2897  -1.1342   4.0530 C.ar           1 <1>                0.0000
     51 C51         13.5639  -1.1441   4.6130 C.ar           1 <1>                0.0000
     52 C52         14.1303  -2.3028   5.0499 C.ar           1 <1>                0.0000
     53 C53         13.4224  -3.5114   4.9371 C.ar           1 <1>                0.0000
     54 C54         13.9765  -4.7254   5.3782 C.ar           1 <1>                0.0000
     55 C55         13.2615  -5.8767   5.2532 C.ar           1 <1>                0.0000
     56 C56         11.9855  -5.8713   4.6930 C.ar           1 <1>                0.0000
     57 C57         11.4176  -4.7144   4.2546 C.ar           1 <1>                0.0000
     58 C58         12.1226  -3.5058   4.3729 C.ar           1 <1>                0.0000
     59 C59          6.1830  -0.2333  -0.0150 C.2            1 <1>                0.0000
     60 N60          4.8628  -0.3035  -0.0881 N.2            1 <1>                0.0000
     61 N61          4.3250  -0.1152   1.0667 N.pl3          1 <1>                0.0000
     62 C62          7.1269  -0.4032  -1.1356 C.2            1 <1>                0.0000
     63 O63          8.3309  -0.3150  -0.9398 O.co2          1 <1>                0.0000
     64 O64          6.7056  -0.6323  -2.2607 O.co2          1 <1>                0.0000
     65 H65         -8.5904   4.0883  -6.1429 H              1 <1>                0.0000
     66 H66         -9.9630   3.3626  -7.0133 H              1 <1>                0.0000
     67 H67        -10.0338   3.5594  -5.2456 H              1 <1>                0.0000
     68 H68         -7.1166   2.4616  -7.1105 H              1 <1>                0.0000
     69 H69         -7.4665   0.7256  -6.9313 H              1 <1>                0.0000
     70 H70         -8.4892   1.7358  -7.9809 H              1 <1>                0.0000
     71 H71         -7.4903   1.0211  -4.5935 H              1 <1>                0.0000
     72 H72         -7.2694   2.7846  -4.6908 H              1 <1>                0.0000
     73 H73         -9.4522   3.1203  -3.5631 H              1 <1>                0.0000
     74 H74         -9.6731   1.3567  -3.4658 H              1 <1>                0.0000
     75 H75         -7.3318   2.8792  -2.2373 H              1 <1>                0.0000
     76 H76         -9.5481   3.3868  -1.1686 H              1 <1>                0.0000
     77 H77         -9.7762   1.6431  -0.8935 H              1 <1>                0.0000
     78 H78        -10.8981   2.8890   0.3793 H              1 <1>                0.0000
     79 H79        -12.5755   3.3818   2.1110 H              1 <1>                0.0000
     80 H80        -11.8807   3.6708   4.4542 H              1 <1>                0.0000
     81 H81         -9.5073   3.4693   5.0733 H              1 <1>                0.0000
     82 H82         -7.8218   2.9704   3.3511 H              1 <1>                0.0000
     83 H83         -7.9809   0.1366  -1.4728 H              1 <1>                0.0000
     84 H84         -6.0009   2.4877  -3.3617 H              1 <1>                0.0000
     85 H85         -3.8593   1.9422  -4.4441 H              1 <1>                0.0000
     86 H86         -4.2102  -2.0989  -3.1249 H              1 <1>                0.0000
     87 H87         -0.5208   0.4625  -3.6548 H              1 <1>                0.0000
     88 H88          0.8399   0.8594  -2.4980 H              1 <1>                0.0000
     89 H89          2.6035   1.2460  -0.8481 H              1 <1>                0.0000
     90 H90          0.5562  -1.6800   2.7326 H              1 <1>                0.0000
     91 H91          0.5853  -3.1469   1.7247 H              1 <1>                0.0000
     92 H92          2.1104  -2.3523   2.1840 H              1 <1>                0.0000
     93 H93         -0.7193  -2.3294  -0.0854 H              1 <1>                0.0000
     94 H94          1.6348   0.1492   3.0580 H              1 <1>                0.0000
     95 H95          3.4038   0.5422   4.7498 H              1 <1>                0.0000
     96 H96          5.7582   0.5157   4.0722 H              1 <1>                0.0000
     97 H97          8.5694   0.6077   1.1384 H              1 <1>                0.0000
     98 H98          7.8628   0.8790   2.7494 H              1 <1>                0.0000
     99 H99          7.7670  -1.5709   3.1200 H              1 <1>                0.0000
    100 H100         8.4736  -1.8423   1.5090 H              1 <1>                0.0000
    101 H101        10.4999  -0.5834   2.1857 H              1 <1>                0.0000
    102 H102         9.7933  -0.3120   3.7967 H              1 <1>                0.0000
    103 H103        11.8642  -0.2012   3.7142 H              1 <1>                0.0000
    104 H104        14.1123  -0.2180   4.7021 H              1 <1>                0.0000
    105 H105        15.1203  -2.2930   5.4814 H              1 <1>                0.0000
    106 H106        14.9646  -4.7446   5.8137 H              1 <1>                0.0000
    107 H107        13.6894  -6.8083   5.5929 H              1 <1>                0.0000
    108 H108        11.4392  -6.7988   4.6049 H              1 <1>                0.0000
    109 H109        10.4280  -4.7253   3.8222 H              1 <1>                0.0000
@<TRIPOS>BOND
    1    1    2 1     
    2    1   65 1     
    3    1   66 1     
    4    1   67 1     
    5    2    3 1     
    6    2    4 1     
    7    2    5 1     
    8    4   68 1     
    9    4   69 1     
   10    4   70 1     
   11    5    6 1     
   12    5   71 1     
   13    5   72 1     
   14    6    7 1     
   15    6   73 1     
   16    6   74 1     
   17    7    8 1     
   18    7   16 1     
   19    7   75 1     
   20    8    9 1     
   21    8   76 1     
   22    8   77 1     
   23    9   10 1     
   24   10   15 ar    
   25   10   11 ar    
   26   11   12 ar    
   27   11   78 1     
   28   12   13 ar    
   29   12   79 1     
   30   13   14 ar    
   31   13   80 1     
   32   14   15 ar    
   33   14   81 1     
   34   15   82 1     
   35   16   17 1     
   36   16   83 1     
   37   17   22 ar    
   38   17   18 ar    
   39   18   19 ar    
   40   18   84 1     
   41   19   20 ar    
   42   19   85 1     
   43   20   21 ar    
   44   20   26 1     
   45   21   22 ar    
   46   21   86 1     
   47   22   23 1     
   48   23   24 2     
   49   23   25 2     
   50   26   27 2     
   51   26   28 2     
   52   26   29 1     
   53   29   30 am    
   54   29   87 1     
   55   30   31 2     
   56   30   32 1     
   57   32   38 ar    
   58   32   33 ar    
   59   33   34 ar    
   60   33   88 1     
   61   34   35 ar    
   62   34   89 1     
   63   35   36 ar    
   64   35   39 1     
   65   36   37 1     
   66   36   38 ar    
   67   37   90 1     
   68   37   91 1     
   69   37   92 1     
   70   38   93 1     
   71   39   61 1     
   72   39   40 2     
   73   40   41 1     
   74   40   94 1     
   75   41   42 2     
   76   41   95 1     
   77   42   43 1     
   78   42   96 1     
   79   43   61 1     
   80   43   44 2     
   81   44   45 1     
   82   44   59 1     
   83   45   46 1     
   84   45   97 1     
   85   45   98 1     
   86   46   47 1     
   87   46   99 1     
   88   46  100 1     
   89   47   48 1     
   90   47  101 1     
   91   47  102 1     
   92   48   49 1     
   93   49   58 ar    
   94   49   50 ar    
   95   50   51 ar    
   96   50  103 1     
   97   51   52 ar    
   98   51  104 1     
   99   52   53 ar    
  100   52  105 1     
  101   53   58 ar    
  102   53   54 ar    
  103   54   55 ar    
  104   54  106 1     
  105   55   56 ar    
  106   55  107 1     
  107   56   57 ar    
  108   56  108 1     
  109   57   58 ar    
  110   57  109 1     
  111   59   60 2     
  112   59   62 1     
  113   60   61 1     
  114   62   63 ar    
  115   62   64 ar    
@<TRIPOS>SUBSTRUCTURE
      1 ****           1
@<TRIPOS>SET
DONOR_HYDROGENS      STATIC     ATOMS    <user>   **** ""
3 3 83 87
ATOM$RED        STATIC     ATOMS    COLORGROUP SYSTEM
3 3 83 87
