#       Name:                LIJ
#       Creating user name   gbret
#       Creation time:       Fri Sep  9 11:28:30 2016


#       File generated by GOLD software.
#

@<TRIPOS>MOLECULE
LIJ
    97    99     1
SMALL
NO_CHARGES


@<TRIPOS>ATOM
      1 C1          -4.0262   4.1792   3.1333 C.3            1 <1>                0.0000
      2 C2          -4.2294   2.6760   2.9334 C.3            1 <1>                0.0000
      3 C3          -3.6640   2.2613   1.5735 C.3            1 <1>                0.0000
      4 C4          -3.7503   0.7407   1.4275 C.3            1 <1>                0.0000
      5 C5          -5.2192   0.3160   1.3751 C.3            1 <1>                0.0000
      6 C6          -5.3081  -1.2113   1.3547 C.3            1 <1>                0.0000
      7 C7          -6.7770  -1.6361   1.3022 C.3            1 <1>                0.0000
      8 S8          -2.9187   0.2320  -0.1023 S.o2           1 <1>                0.0000
      9 O9          -2.7825  -1.1825  -0.0947 O.2            1 <1>                0.0000
     10 O10         -3.5658   0.8608  -1.2000 O.2            1 <1>                0.0000
     11 C11         -1.2750   0.9720   0.1008 C.3            1 <1>                0.0000
     12 C12         -0.3597   0.4994  -1.0304 C.3            1 <1>                0.0000
     13 N13         -0.8596   1.0107  -2.3090 N.am           1 <1>                0.0000
     14 C14         -1.8171   0.3367  -2.9763 C.2            1 <1>                0.0000
     15 O15         -2.2657  -0.6952  -2.5174 O.2            1 <1>                0.0000
     16 O16         -2.2766   0.8066  -4.1514 O.3            1 <1>                0.0000
     17 C17         -3.3080   0.0288  -4.8144 C.3            1 <1>                0.0000
     18 C18         -3.6947   0.7041  -6.1050 C.ar           1 <1>                0.0000
     19 C19         -4.7106   1.6415  -6.1171 C.ar           1 <1>                0.0000
     20 C20         -5.0654   2.2609  -7.3009 C.ar           1 <1>                0.0000
     21 C21         -4.4040   1.9432  -8.4724 C.ar           1 <1>                0.0000
     22 C22         -3.3875   1.0065  -8.4601 C.ar           1 <1>                0.0000
     23 C23         -3.0299   0.3902  -7.2756 C.ar           1 <1>                0.0000
     24 C24          1.0369   1.0144  -0.7950 C.2            1 <1>                0.0000
     25 O25          1.5628   1.7374  -1.6145 O.2            1 <1>                0.0000
     26 N26          1.7014   0.6716   0.3263 N.am           1 <1>                0.0000
     27 C27          3.0591   1.1722   0.5552 C.3            1 <1>                0.0000
     28 C28          2.9896   2.5598   1.1962 C.3            1 <1>                0.0000
     29 C29          2.3650   3.5301   0.2271 C.ar           1 <1>                0.0000
     30 C30          3.1610   4.2286  -0.6614 C.ar           1 <1>                0.0000
     31 C31          2.5880   5.1187  -1.5504 C.ar           1 <1>                0.0000
     32 C32          1.2190   5.3100  -1.5511 C.ar           1 <1>                0.0000
     33 C33          0.4228   4.6109  -0.6632 C.ar           1 <1>                0.0000
     34 C34          0.9954   3.7176   0.2228 C.ar           1 <1>                0.0000
     35 C35          3.8047   0.2161   1.4884 C.3            1 <1>                0.0000
     36 O36          3.1119   0.1306   2.7353 O.3            1 <1>                0.0000
     37 C37          3.8741  -1.1714   0.8474 C.3            1 <1>                0.0000
     38 N38          4.5900  -2.0894   1.7433 N.4            1 <1>                0.0000
     39 H39          5.5250  -1.7446   1.9010 H              1 <1>                0.0000
     40 H40          4.1009  -2.1498   2.6238 H              1 <1>                0.0000
     41 C41          4.6566  -3.4216   1.1279 C.3            1 <1>                0.0000
     42 C42          5.3910  -4.3634   2.0470 C.ar           1 <1>                0.0000
     43 C43          6.7639  -4.4963   1.9466 C.ar           1 <1>                0.0000
     44 C44          7.4405  -5.3590   2.7886 C.ar           1 <1>                0.0000
     45 C45          6.7464  -6.0909   3.7328 C.ar           1 <1>                0.0000
     46 C46          5.3693  -5.9594   3.8355 C.ar           1 <1>                0.0000
     47 O47          4.6842  -6.6781   4.7633 O.3            1 <1>                0.0000
     48 C48          5.4462  -7.5504   5.6005 C.3            1 <1>                0.0000
     49 C49          4.6931  -5.0889   2.9927 C.ar           1 <1>                0.0000
     50 H50         -4.4290   4.4746   4.1021 H              1 <1>                0.0000
     51 H51         -2.9615   4.4099   3.0968 H              1 <1>                0.0000
     52 H52         -4.5432   4.7240   2.3434 H              1 <1>                0.0000
     53 H53         -3.7123   2.1312   3.7233 H              1 <1>                0.0000
     54 H54         -5.2941   2.4453   2.9699 H              1 <1>                0.0000
     55 H55         -4.2413   2.7358   0.7800 H              1 <1>                0.0000
     56 H56         -2.6224   2.5746   1.5023 H              1 <1>                0.0000
     57 H57         -3.2650   0.2657   2.2802 H              1 <1>                0.0000
     58 H58         -5.7396   0.6985   2.2531 H              1 <1>                0.0000
     59 H59         -5.6820   0.7189   0.4742 H              1 <1>                0.0000
     60 H60         -4.7876  -1.5939   0.4767 H              1 <1>                0.0000
     61 H61         -4.8453  -1.6142   2.2556 H              1 <1>                0.0000
     62 H62         -6.8403  -2.7241   1.2877 H              1 <1>                0.0000
     63 H63         -7.2974  -1.2535   2.1803 H              1 <1>                0.0000
     64 H64         -7.2397  -1.2332   0.4013 H              1 <1>                0.0000
     65 H65         -1.3593   2.0583   0.0702 H              1 <1>                0.0000
     66 H66         -0.8552   0.6670   1.0594 H              1 <1>                0.0000
     67 H67         -0.3457  -0.5902  -1.0553 H              1 <1>                0.0000
     68 H68         -0.5015   1.8344  -2.6754 H              1 <1>                0.0000
     69 H69         -2.9291  -0.9709  -5.0268 H              1 <1>                0.0000
     70 H70         -4.1814  -0.0437  -4.1663 H              1 <1>                0.0000
     71 H71         -5.2273   1.8897  -5.2018 H              1 <1>                0.0000
     72 H72         -5.8595   2.9928  -7.3105 H              1 <1>                0.0000
     73 H73         -4.6816   2.4267  -9.3974 H              1 <1>                0.0000
     74 H74         -2.8710   0.7580  -9.3755 H              1 <1>                0.0000
     75 H75         -2.2357  -0.3417  -7.2659 H              1 <1>                0.0000
     76 H76          1.2808   0.0933   0.9818 H              1 <1>                0.0000
     77 H77          3.5875   1.2374  -0.3959 H              1 <1>                0.0000
     78 H78          2.3856   2.5116   2.1023 H              1 <1>                0.0000
     79 H79          3.9960   2.8946   1.4478 H              1 <1>                0.0000
     80 H80          4.2306   4.0791  -0.6608 H              1 <1>                0.0000
     81 H81          3.2100   5.6649  -2.2441 H              1 <1>                0.0000
     82 H82          0.7714   6.0060  -2.2452 H              1 <1>                0.0000
     83 H83         -0.6467   4.7607  -0.6636 H              1 <1>                0.0000
     84 H84          0.3734   3.1715   0.9165 H              1 <1>                0.0000
     85 H85          4.8148   0.5886   1.6587 H              1 <1>                0.0000
     86 H86          2.2044  -0.1944   2.6596 H              1 <1>                0.0000
     87 H87          2.8640  -1.5439   0.6771 H              1 <1>                0.0000
     88 H88          4.4025  -1.1062  -0.1037 H              1 <1>                0.0000
     89 H89          3.6465  -3.7941   0.9576 H              1 <1>                0.0000
     90 H90          5.1850  -3.3564   0.1768 H              1 <1>                0.0000
     91 H91          7.3082  -3.9254   1.2090 H              1 <1>                0.0000
     92 H92          8.5127  -5.4613   2.7080 H              1 <1>                0.0000
     93 H93          7.2754  -6.7650   4.3901 H              1 <1>                0.0000
     94 H94          5.9634  -8.2855   4.9839 H              1 <1>                0.0000
     95 H95          6.1770  -6.9683   6.1619 H              1 <1>                0.0000
     96 H96          4.7793  -8.0625   6.2940 H              1 <1>                0.0000
     97 H97          3.6210  -4.9845   3.0709 H              1 <1>                0.0000
@<TRIPOS>BOND
    1    1    2 1     
    2    1   50 1     
    3    1   51 1     
    4    1   52 1     
    5    2    3 1     
    6    2   53 1     
    7    2   54 1     
    8    3    4 1     
    9    3   55 1     
   10    3   56 1     
   11    4    5 1     
   12    4    8 1     
   13    4   57 1     
   14    5    6 1     
   15    5   58 1     
   16    5   59 1     
   17    6    7 1     
   18    6   60 1     
   19    6   61 1     
   20    7   62 1     
   21    7   63 1     
   22    7   64 1     
   23    8    9 2     
   24    8   10 2     
   25    8   11 1     
   26   11   12 1     
   27   11   65 1     
   28   11   66 1     
   29   12   13 1     
   30   12   24 1     
   31   12   67 1     
   32   13   14 am    
   33   13   68 1     
   34   14   15 2     
   35   14   16 1     
   36   16   17 1     
   37   17   18 1     
   38   17   69 1     
   39   17   70 1     
   40   18   23 ar    
   41   18   19 ar    
   42   19   20 ar    
   43   19   71 1     
   44   20   21 ar    
   45   20   72 1     
   46   21   22 ar    
   47   21   73 1     
   48   22   23 ar    
   49   22   74 1     
   50   23   75 1     
   51   24   25 2     
   52   24   26 am    
   53   26   27 1     
   54   26   76 1     
   55   27   28 1     
   56   27   35 1     
   57   27   77 1     
   58   28   29 1     
   59   28   78 1     
   60   28   79 1     
   61   29   34 ar    
   62   29   30 ar    
   63   30   31 ar    
   64   30   80 1     
   65   31   32 ar    
   66   31   81 1     
   67   32   33 ar    
   68   32   82 1     
   69   33   34 ar    
   70   33   83 1     
   71   34   84 1     
   72   35   36 1     
   73   35   37 1     
   74   35   85 1     
   75   36   86 1     
   76   37   38 1     
   77   37   87 1     
   78   37   88 1     
   79   38   39 1     
   80   38   40 1     
   81   38   41 1     
   82   41   42 1     
   83   41   89 1     
   84   41   90 1     
   85   42   49 ar    
   86   42   43 ar    
   87   43   44 ar    
   88   43   91 1     
   89   44   45 ar    
   90   44   92 1     
   91   45   46 ar    
   92   45   93 1     
   93   46   47 1     
   94   46   49 ar    
   95   47   48 1     
   96   48   94 1     
   97   48   95 1     
   98   48   96 1     
   99   49   97 1     
@<TRIPOS>SUBSTRUCTURE
      1 ****           1
@<TRIPOS>SET
DONOR_HYDROGENS      STATIC     ATOMS    <user>   **** ""
5 68 76 86 39 40
ATOM$RED        STATIC     ATOMS    COLORGROUP SYSTEM
5 68 76 86 39 40
