#       Name:                LIS
#       Creating user name   gbret
#       Creation time:       Fri Sep  9 11:29:13 2016


#       File generated by GOLD software.
#

@<TRIPOS>MOLECULE
LIS
    18    18     1
SMALL
NO_CHARGES


@<TRIPOS>ATOM
      1 N1           1.6717  -0.1391  -0.7304 N.4            1 <1>                0.0000
      2 H2           1.6854  -1.1480  -0.7360 H              1 <1>                0.0000
      3 H3           2.6183   0.2102  -0.7376 H              1 <1>                0.0000
      4 H4           1.1837   0.1952  -1.5479 H              1 <1>                0.0000
      5 C5           0.9841   0.3347   0.4782 C.3            1 <1>                0.0000
      6 C6          -0.4513  -0.1949   0.4890 C.3            1 <1>                0.0000
      7 C7          -1.2274   0.4111  -0.6820 C.3            1 <1>                0.0000
      8 C8          -2.6765  -0.0360  -0.8845 C.3            1 <1>                0.0000
      9 O9          -2.3384   1.2568  -0.3780 O.3            1 <1>                0.0000
     10 C10          1.7130  -0.1645   1.6991 C.2            1 <1>                0.0000
     11 O11          2.7126  -0.8513   1.5740 O.co2          1 <1>                0.0000
     12 O12          1.3031   0.1183   2.8119 O.co2          1 <1>                0.0000
     13 H13          0.9693   1.4246   0.4842 H              1 <1>                0.0000
     14 H14         -0.4387  -1.2806   0.3935 H              1 <1>                0.0000
     15 H15         -0.9336   0.0818   1.4266 H              1 <1>                0.0000
     16 H16         -0.6386   0.6453  -1.5689 H              1 <1>                0.0000
     17 H17         -3.0504  -0.0993  -1.9064 H              1 <1>                0.0000
     18 H18         -3.0857  -0.7646  -0.1846 H              1 <1>                0.0000
@<TRIPOS>BOND
    1    1    2 1     
    2    1    3 1     
    3    1    4 1     
    4    1    5 1     
    5    5    6 1     
    6    5   10 1     
    7    5   13 1     
    8    6    7 1     
    9    6   14 1     
   10    6   15 1     
   11    7    9 1     
   12    7    8 1     
   13    7   16 1     
   14    8    9 1     
   15    8   17 1     
   16    8   18 1     
   17   10   11 ar    
   18   10   12 ar    
@<TRIPOS>SUBSTRUCTURE
      1 ****           1
@<TRIPOS>SET
DONOR_HYDROGENS      STATIC     ATOMS    <user>   **** ""
3 2 3 4
ATOM$RED        STATIC     ATOMS    COLORGROUP SYSTEM
3 2 3 4
