#       Name:                LJ4
#       Creating user name   gbret
#       Creation time:       Fri Sep  9 11:30:04 2016


#       File generated by GOLD software.
#

@<TRIPOS>MOLECULE
LJ4
    23    24     1
SMALL
NO_CHARGES


@<TRIPOS>ATOM
      1 O1          -1.3080  -4.6092   0.7772 O.co2          1 <1>                0.0000
      2 C2          -1.2854  -3.2815   0.4827 C.ar           1 <1>                0.0000
      3 C3          -0.0966  -2.5714   0.5707 C.ar           1 <1>                0.0000
      4 Br4          1.4923  -3.4495   1.1002 Br             1 <1>                0.0000
      5 C5          -0.0736  -1.2224   0.2709 C.ar           1 <1>                0.0000
      6 C6          -1.2391  -0.5783  -0.1179 C.ar           1 <1>                0.0000
      7 O7          -1.2163   0.7486  -0.4132 O.3            1 <1>                0.0000
      8 C8          -0.0285   1.4022  -0.3218 C.ar           1 <1>                0.0000
      9 C9           0.8103   1.4771  -1.4247 C.ar           1 <1>                0.0000
     10 C10          2.0170   2.1425  -1.3292 C.ar           1 <1>                0.0000
     11 C11          2.3895   2.7336  -0.1360 C.ar           1 <1>                0.0000
     12 C12          1.5558   2.6599   0.9647 C.ar           1 <1>                0.0000
     13 C13          0.3454   2.0007   0.8730 C.ar           1 <1>                0.0000
     14 C14         -2.4277  -1.2881  -0.2060 C.ar           1 <1>                0.0000
     15 C15         -2.4499  -2.6382   0.0886 C.ar           1 <1>                0.0000
     16 Br16        -4.0703  -3.6057  -0.0315 Br             1 <1>                0.0000
     17 H17          0.8516  -0.6696   0.3398 H              1 <1>                0.0000
     18 H18          0.5200   1.0154  -2.3568 H              1 <1>                0.0000
     19 H19          2.6703   2.2009  -2.1872 H              1 <1>                0.0000
     20 H20          3.3334   3.2533  -0.0634 H              1 <1>                0.0000
     21 H21          1.8493   3.1221   1.8957 H              1 <1>                0.0000
     22 H22         -0.3054   1.9435   1.7330 H              1 <1>                0.0000
     23 H23         -3.3350  -0.7864  -0.5087 H              1 <1>                0.0000
@<TRIPOS>BOND
    1    1    2 ar    
    2    2   15 ar    
    3    2    3 ar    
    4    3    4 1     
    5    3    5 ar    
    6    5    6 ar    
    7    5   17 1     
    8    6    7 1     
    9    6   14 ar    
   10    7    8 1     
   11    8   13 ar    
   12    8    9 ar    
   13    9   10 ar    
   14    9   18 1     
   15   10   11 ar    
   16   10   19 1     
   17   11   12 ar    
   18   11   20 1     
   19   12   13 ar    
   20   12   21 1     
   21   13   22 1     
   22   14   15 ar    
   23   14   23 1     
   24   15   16 1     
@<TRIPOS>SUBSTRUCTURE
      1 ****           1
