#       Name:                LKF
#       Creating user name   gbret
#       Creation time:       Fri Sep  9 11:31:23 2016


#       File generated by GOLD software.
#

@<TRIPOS>MOLECULE
LKF
    50    53     1
SMALL
NO_CHARGES


@<TRIPOS>ATOM
      1 C1           4.1148   3.5083   4.0312 C.3            1 <1>                0.0000
      2 O2           4.1342   2.0794   4.0233 O.3            1 <1>                0.0000
      3 C3           4.7839   1.5132   2.8834 C.3            1 <1>                0.0000
      4 C4           6.2717   1.3243   3.1860 C.3            1 <1>                0.0000
      5 C5           4.1535   0.1576   2.5581 C.3            1 <1>                0.0000
      6 N6           2.7592   0.3522   2.1526 N.pl3          1 <1>                0.0000
      7 C7           2.2016  -0.0823   1.0027 C.2            1 <1>                0.0000
      8 C8           0.8906   0.3014   1.0095 C.2            1 <1>                0.0000
      9 C9           0.6575   0.9941   2.2150 C.2            1 <1>                0.0000
     10 N10          1.7739   1.0157   2.8936 N.2            1 <1>                0.0000
     11 C11         -0.1040   0.0382  -0.0552 C.2            1 <1>                0.0000
     12 C12          0.0855   0.1837  -1.4015 C.2            1 <1>                0.0000
     13 C13          1.3565   0.6439  -2.0677 C.3            1 <1>                0.0000
     14 N14         -1.0422  -0.1508  -2.0241 N.2            1 <1>                0.0000
     15 C15         -1.9495  -0.5056  -1.1300 C.2            1 <1>                0.0000
     16 C16         -3.2931  -0.9433  -1.2350 C.2            1 <1>                0.0000
     17 N17         -3.9698  -1.2342  -0.1420 N.2            1 <1>                0.0000
     18 C18         -3.4137  -1.1249   1.0695 C.2            1 <1>                0.0000
     19 C19         -2.1399  -0.7127   1.2213 C.2            1 <1>                0.0000
     20 N20         -1.3860  -0.4025   0.1185 N.pl3          1 <1>                0.0000
     21 N21         -3.8920  -1.0642  -2.4790 N.3            1 <1>                0.0000
     22 C22         -3.1187  -1.9602  -3.3511 C.3            1 <1>                0.0000
     23 C23         -3.7811  -2.0181  -4.7302 C.3            1 <1>                0.0000
     24 O24         -5.1386  -2.4436  -4.5840 O.3            1 <1>                0.0000
     25 C25         -5.9210  -1.5931  -3.7414 C.3            1 <1>                0.0000
     26 C26         -5.2803  -1.5310  -2.3523 C.3            1 <1>                0.0000
     27 H27          5.1374   3.8856   4.0234 H              1 <1>                0.0000
     28 H28          3.5876   3.8694   3.1481 H              1 <1>                0.0000
     29 H29          3.6046   3.8598   4.9280 H              1 <1>                0.0000
     30 H30          4.6687   2.1817   2.0302 H              1 <1>                0.0000
     31 H31          6.7673   0.8924   2.3165 H              1 <1>                0.0000
     32 H32          6.7209   2.2900   3.4178 H              1 <1>                0.0000
     33 H33          6.3870   0.6558   4.0392 H              1 <1>                0.0000
     34 H34          4.7057  -0.3142   1.7454 H              1 <1>                0.0000
     35 H35          4.1894  -0.4810   3.4407 H              1 <1>                0.0000
     36 H36          2.7012  -0.6330   0.2195 H              1 <1>                0.0000
     37 H37         -0.2815   1.4280   2.5254 H              1 <1>                0.0000
     38 H38          1.9843  -0.2194  -2.2883 H              1 <1>                0.0000
     39 H39          1.1134   1.1629  -2.9949 H              1 <1>                0.0000
     40 H40          1.8911   1.3212  -1.4016 H              1 <1>                0.0000
     41 H41         -3.9977  -1.3717   1.9439 H              1 <1>                0.0000
     42 H42         -1.7119  -0.6313   2.2095 H              1 <1>                0.0000
     43 H43         -2.1015  -1.5818  -3.4515 H              1 <1>                0.0000
     44 H44         -3.0948  -2.9596  -2.9167 H              1 <1>                0.0000
     45 H45         -3.7569  -1.0289  -5.1874 H              1 <1>                0.0000
     46 H46         -3.2441  -2.7252  -5.3625 H              1 <1>                0.0000
     47 H47         -5.9590  -0.5916  -4.1698 H              1 <1>                0.0000
     48 H48         -6.9316  -1.9929  -3.6585 H              1 <1>                0.0000
     49 H49         -5.2909  -2.5235  -1.9018 H              1 <1>                0.0000
     50 H50         -5.8409  -0.8393  -1.7235 H              1 <1>                0.0000
@<TRIPOS>BOND
    1    1    2 1     
    2    1   27 1     
    3    1   28 1     
    4    1   29 1     
    5    2    3 1     
    6    3    4 1     
    7    3    5 1     
    8    3   30 1     
    9    4   31 1     
   10    4   32 1     
   11    4   33 1     
   12    5    6 1     
   13    5   34 1     
   14    5   35 1     
   15    6   10 1     
   16    6    7 1     
   17    7    8 2     
   18    7   36 1     
   19    8    9 1     
   20    8   11 1     
   21    9   10 2     
   22    9   37 1     
   23   11   20 1     
   24   11   12 2     
   25   12   13 1     
   26   12   14 1     
   27   13   38 1     
   28   13   39 1     
   29   13   40 1     
   30   14   15 2     
   31   15   20 1     
   32   15   16 1     
   33   16   17 2     
   34   16   21 1     
   35   17   18 1     
   36   18   19 2     
   37   18   41 1     
   38   19   20 1     
   39   19   42 1     
   40   21   26 1     
   41   21   22 1     
   42   22   23 1     
   43   22   43 1     
   44   22   44 1     
   45   23   24 1     
   46   23   45 1     
   47   23   46 1     
   48   24   25 1     
   49   25   26 1     
   50   25   47 1     
   51   25   48 1     
   52   26   49 1     
   53   26   50 1     
@<TRIPOS>SUBSTRUCTURE
      1 ****           1
