#       Name:                LKG
#       Creating user name   gbret
#       Creation time:       Fri Sep  9 11:31:27 2016


#       File generated by GOLD software.
#

@<TRIPOS>MOLECULE
LKG
    37    40     1
SMALL
NO_CHARGES


@<TRIPOS>ATOM
      1 O1          -1.7458   5.1484  -2.2565 O.3            1 <1>                0.0000
      2 C2          -1.7273   3.7895  -2.2640 C.ar           1 <1>                0.0000
      3 C3          -1.7236   3.1013  -3.4686 C.ar           1 <1>                0.0000
      4 C4          -1.7043   1.7200  -3.4735 C.ar           1 <1>                0.0000
      5 C5          -1.6893   1.0234  -2.2792 C.ar           1 <1>                0.0000
      6 C6          -1.6688  -0.4834  -2.2875 C.3            1 <1>                0.0000
      7 C7          -0.2414  -0.9664  -2.2969 C.2            1 <1>                0.0000
      8 N8           0.4877  -1.2029  -3.3590 N.2            1 <1>                0.0000
      9 N9           1.6614  -1.6029  -3.0132 N.2            1 <1>                0.0000
     10 C10          1.7385  -1.6413  -1.6930 C.2            1 <1>                0.0000
     11 C11          2.7562  -1.9937  -0.7864 C.2            1 <1>                0.0000
     12 C12          2.5083  -1.9224   0.5480 C.2            1 <1>                0.0000
     13 C13          1.2442  -1.4999   1.0113 C.2            1 <1>                0.0000
     14 N14          0.2932  -1.1706   0.1655 N.2            1 <1>                0.0000
     15 N15          0.5190  -1.2278  -1.2112 N.pl3          1 <1>                0.0000
     16 C16          0.9851  -1.4270   2.4704 C.ar           1 <1>                0.0000
     17 C17          1.9872  -1.7686   3.3765 C.ar           1 <1>                0.0000
     18 C18          1.7407  -1.6990   4.7326 C.ar           1 <1>                0.0000
     19 C19          0.5016  -1.2911   5.1929 C.ar           1 <1>                0.0000
     20 C20         -0.4968  -0.9513   4.2980 C.ar           1 <1>                0.0000
     21 C21         -0.2594  -1.0113   2.9397 C.ar           1 <1>                0.0000
     22 C22         -1.6926   1.7070  -1.0774 C.ar           1 <1>                0.0000
     23 C23         -1.7064   3.0883  -1.0671 C.ar           1 <1>                0.0000
     24 H24         -0.8678   5.5537  -2.2627 H              1 <1>                0.0000
     25 H25         -1.7360   3.6450  -4.4017 H              1 <1>                0.0000
     26 H26         -1.7014   1.1838  -4.4109 H              1 <1>                0.0000
     27 H27         -2.1735  -0.8586  -1.3972 H              1 <1>                0.0000
     28 H28         -2.1819  -0.8489  -3.1771 H              1 <1>                0.0000
     29 H29          3.7216  -2.3170  -1.1468 H              1 <1>                0.0000
     30 H30          3.2799  -2.1898   1.2548 H              1 <1>                0.0000
     31 H31          2.9548  -2.0876   3.0182 H              1 <1>                0.0000
     32 H32          2.5164  -1.9639   5.4358 H              1 <1>                0.0000
     33 H33          0.3130  -1.2381   6.2550 H              1 <1>                0.0000
     34 H34         -1.4626  -0.6342   4.6628 H              1 <1>                0.0000
     35 H35         -1.0397  -0.7457   2.2419 H              1 <1>                0.0000
     36 H36         -1.6804   1.1606  -0.1458 H              1 <1>                0.0000
     37 H37         -1.7090   3.6218  -0.1281 H              1 <1>                0.0000
@<TRIPOS>BOND
    1    1    2 1     
    2    1   24 1     
    3    2   23 ar    
    4    2    3 ar    
    5    3    4 ar    
    6    3   25 1     
    7    4    5 ar    
    8    4   26 1     
    9    5    6 1     
   10    5   22 ar    
   11    6    7 1     
   12    6   27 1     
   13    6   28 1     
   14    7   15 1     
   15    7    8 2     
   16    8    9 1     
   17    9   10 2     
   18   10   15 1     
   19   10   11 1     
   20   11   12 2     
   21   11   29 1     
   22   12   13 1     
   23   12   30 1     
   24   13   14 2     
   25   13   16 1     
   26   14   15 1     
   27   16   21 ar    
   28   16   17 ar    
   29   17   18 ar    
   30   17   31 1     
   31   18   19 ar    
   32   18   32 1     
   33   19   20 ar    
   34   19   33 1     
   35   20   21 ar    
   36   20   34 1     
   37   21   35 1     
   38   22   23 ar    
   39   22   36 1     
   40   23   37 1     
@<TRIPOS>SUBSTRUCTURE
      1 ****           1
@<TRIPOS>SET
DONOR_HYDROGENS      STATIC     ATOMS    <user>   **** ""
1 24
ATOM$RED        STATIC     ATOMS    COLORGROUP SYSTEM
1 24
