#       Name:                LNO
#       Creating user name   gbret
#       Creation time:       Fri Sep  9 11:36:11 2016


#       File generated by GOLD software.
#

@<TRIPOS>MOLECULE
LNO
    25    24     1
SMALL
NO_CHARGES


@<TRIPOS>ATOM
      1 C1           1.9412   0.7122  -0.9084 C.3            1 <1>                0.0000
      2 C2           1.1521   1.0951   0.3453 C.3            1 <1>                0.0000
      3 C3           1.1323   2.6181   0.4900 C.3            1 <1>                0.0000
      4 C4          -0.2818   0.5757   0.2238 C.3            1 <1>                0.0000
      5 C5          -0.2714  -0.9543   0.2192 C.3            1 <1>                0.0000
      6 N6           0.2166  -1.4445   1.5152 N.4            1 <1>                0.0000
      7 H7           0.1424  -2.4504   1.5439 H              1 <1>                0.0000
      8 H8           1.1815  -1.1749   1.6351 H              1 <1>                0.0000
      9 H9          -0.3389  -1.0450   2.2567 H              1 <1>                0.0000
     10 C10         -1.6692  -1.4655  -0.0172 C.2            1 <1>                0.0000
     11 O11         -2.3415  -1.8470   0.9173 O.2            1 <1>                0.0000
     12 N12         -2.1721  -1.4987  -1.2672 N.am           1 <1>                0.0000
     13 O13         -3.4855  -1.9790  -1.4893 O.3            1 <1>                0.0000
     14 H14          2.9628   1.0822  -0.8218 H              1 <1>                0.0000
     15 H15          1.9553  -0.3728  -1.0115 H              1 <1>                0.0000
     16 H16          1.4676   1.1543  -1.7849 H              1 <1>                0.0000
     17 H17          1.6257   0.6530   1.2218 H              1 <1>                0.0000
     18 H18          0.7395   3.0648  -0.4234 H              1 <1>                0.0000
     19 H19          0.4977   2.8949   1.3319 H              1 <1>                0.0000
     20 H20          2.1457   2.9797   0.6646 H              1 <1>                0.0000
     21 H21         -0.8704   0.9325   1.0690 H              1 <1>                0.0000
     22 H22         -0.7224   0.9388  -0.7048 H              1 <1>                0.0000
     23 H23          0.3850  -1.3108  -0.5746 H              1 <1>                0.0000
     24 H24         -1.6344  -1.1936  -2.0146 H              1 <1>                0.0000
     25 H25         -3.7579  -1.9646  -2.4171 H              1 <1>                0.0000
@<TRIPOS>BOND
    1    1    2 1     
    2    1   14 1     
    3    1   15 1     
    4    1   16 1     
    5    2    3 1     
    6    2    4 1     
    7    2   17 1     
    8    3   18 1     
    9    3   19 1     
   10    3   20 1     
   11    4    5 1     
   12    4   21 1     
   13    4   22 1     
   14    5    6 1     
   15    5   10 1     
   16    5   23 1     
   17    6    7 1     
   18    6    8 1     
   19    6    9 1     
   20   10   11 2     
   21   10   12 am    
   22   12   13 1     
   23   12   24 1     
   24   13   25 1     
@<TRIPOS>SUBSTRUCTURE
      1 ****           1
@<TRIPOS>SET
DONOR_HYDROGENS      STATIC     ATOMS    <user>   **** ""
5 7 8 9 24 25
ATOM$RED        STATIC     ATOMS    COLORGROUP SYSTEM
5 7 8 9 24 25
