#       Name:                LO1
#       Creating user name   gbret
#       Creation time:       Fri Sep  9 11:36:53 2016


#       File generated by GOLD software.
#

@<TRIPOS>MOLECULE
LO1
    24    24     1
SMALL
NO_CHARGES


@<TRIPOS>ATOM
      1 N1          -1.1268   0.2856  -3.6411 N.4            1 <1>                0.0000
      2 H2          -1.2336  -0.7154  -3.5717 H              1 <1>                0.0000
      3 H3          -0.1469   0.5151  -3.7127 H              1 <1>                0.0000
      4 H4          -1.6113   0.6195  -4.4607 H              1 <1>                0.0000
      5 C5          -1.6927   0.9225  -2.4444 C.3            1 <1>                0.0000
      6 C6          -0.9691   0.4237  -1.2201 C.ar           1 <1>                0.0000
      7 C7          -1.4251  -0.7030  -0.5604 C.ar           1 <1>                0.0000
      8 C8          -0.7645  -1.1628   0.5617 C.ar           1 <1>                0.0000
      9 C9           0.3595  -0.4921   1.0278 C.ar           1 <1>                0.0000
     10 N10          1.0305  -0.9546   2.1622 N.am           1 <1>                0.0000
     11 C11          1.6214  -0.0792   2.9993 C.2            1 <1>                0.0000
     12 O12          1.4902   1.1139   2.8211 O.2            1 <1>                0.0000
     13 C13          2.4391  -0.5782   4.1480 C.2            1 <1>                0.0000
     14 O14          2.9742   0.2144   4.9060 O.co2          1 <1>                0.0000
     15 O15          2.5711  -1.7781   4.3272 O.co2          1 <1>                0.0000
     16 C16          0.8149   0.6396   0.3625 C.ar           1 <1>                0.0000
     17 C17          0.1527   1.0905  -0.7623 C.ar           1 <1>                0.0000
     18 H18         -1.5773   2.0038  -2.5193 H              1 <1>                0.0000
     19 H19         -2.7513   0.6745  -2.3669 H              1 <1>                0.0000
     20 H20         -2.2991  -1.2236  -0.9231 H              1 <1>                0.0000
     21 H21         -1.1214  -2.0425   1.0766 H              1 <1>                0.0000
     22 H22          1.0711  -1.9059   2.3474 H              1 <1>                0.0000
     23 H23          1.6881   1.1635   0.7222 H              1 <1>                0.0000
     24 H24          0.5063   1.9699  -1.2801 H              1 <1>                0.0000
@<TRIPOS>BOND
    1    1    2 1     
    2    1    3 1     
    3    1    4 1     
    4    1    5 1     
    5    5    6 1     
    6    5   18 1     
    7    5   19 1     
    8    6   17 ar    
    9    6    7 ar    
   10    7    8 ar    
   11    7   20 1     
   12    8    9 ar    
   13    8   21 1     
   14    9   10 1     
   15    9   16 ar    
   16   10   11 am    
   17   10   22 1     
   18   11   12 2     
   19   11   13 1     
   20   13   14 ar    
   21   13   15 ar    
   22   16   17 ar    
   23   16   23 1     
   24   17   24 1     
@<TRIPOS>SUBSTRUCTURE
      1 ****           1
@<TRIPOS>SET
DONOR_HYDROGENS      STATIC     ATOMS    <user>   **** ""
4 2 3 4 22
ATOM$RED        STATIC     ATOMS    COLORGROUP SYSTEM
4 2 3 4 22
