#       Name:                LPG
#       Creating user name   gbret
#       Creation time:       Fri Sep  9 11:39:14 2016


#       File generated by GOLD software.
#

@<TRIPOS>MOLECULE
LPG
    12    11     1
SMALL
NO_CHARGES


@<TRIPOS>ATOM
      1 N1           0.1958  -0.5199  -1.2673 N.4            1 <1>                0.0000
      2 H2           0.2095  -1.5288  -1.2730 H              1 <1>                0.0000
      3 H3           1.1424  -0.1706  -1.2746 H              1 <1>                0.0000
      4 H4          -0.2922  -0.1856  -2.0848 H              1 <1>                0.0000
      5 C5          -0.4918  -0.0461  -0.0588 C.3            1 <1>                0.0000
      6 C6           0.2201  -0.5338   1.1338 C.1            1 <1>                0.0000
      7 C7           0.7880  -0.9227   2.0848 C.1            1 <1>                0.0000
      8 C8          -0.5122   1.4607  -0.0505 C.2            1 <1>                0.0000
      9 O9          -1.1914   2.0567   0.7681 O.co2          1 <1>                0.0000
     10 O10          0.1504   2.0838  -0.8623 O.co2          1 <1>                0.0000
     11 H11         -1.5144  -0.4234  -0.0511 H              1 <1>                0.0000
     12 H12          1.2958  -1.2705   2.9355 H              1 <1>                0.0000
@<TRIPOS>BOND
    1    1    2 1     
    2    1    3 1     
    3    1    4 1     
    4    1    5 1     
    5    5    6 1     
    6    5    8 1     
    7    5   11 1     
    8    6    7 3     
    9    7   12 1     
   10    8    9 ar    
   11    8   10 ar    
@<TRIPOS>SUBSTRUCTURE
      1 ****           1
@<TRIPOS>SET
DONOR_HYDROGENS      STATIC     ATOMS    <user>   **** ""
3 2 3 4
ATOM$RED        STATIC     ATOMS    COLORGROUP SYSTEM
3 2 3 4
