#       Name:                LPH
#       Creating user name   gbret
#       Creation time:       Fri Sep  9 11:39:17 2016


#       File generated by GOLD software.
#

@<TRIPOS>MOLECULE
LPH
    15    14     1
SMALL
NO_CHARGES


@<TRIPOS>ATOM
      1 N1           1.1583  -0.2122  -0.8031 N.4            1 <1>                0.0000
      2 H2           1.1720  -1.2211  -0.8087 H              1 <1>                0.0000
      3 H3           2.1049   0.1371  -0.8103 H              1 <1>                0.0000
      4 H4           0.6703   0.1221  -1.6206 H              1 <1>                0.0000
      5 C5           0.4707   0.2616   0.4055 C.3            1 <1>                0.0000
      6 C6          -0.9647  -0.2680   0.4163 C.3            1 <1>                0.0000
      7 C7          -1.7113   0.3151  -0.7103 C.1            1 <1>                0.0000
      8 C8          -2.3068   0.7801  -1.6089 C.1            1 <1>                0.0000
      9 C9           1.1996  -0.2376   1.6264 C.2            1 <1>                0.0000
     10 O10          2.1992  -0.9244   1.5013 O.co2          1 <1>                0.0000
     11 O11          0.7897   0.0452   2.7392 O.co2          1 <1>                0.0000
     12 H12          0.4559   1.3515   0.4115 H              1 <1>                0.0000
     13 H13         -0.9521  -1.3537   0.3208 H              1 <1>                0.0000
     14 H14         -1.4470   0.0087   1.3539 H              1 <1>                0.0000
     15 H15         -2.8394   1.1960  -2.4125 H              1 <1>                0.0000
@<TRIPOS>BOND
    1    1    2 1     
    2    1    3 1     
    3    1    4 1     
    4    1    5 1     
    5    5    6 1     
    6    5    9 1     
    7    5   12 1     
    8    6    7 1     
    9    6   13 1     
   10    6   14 1     
   11    7    8 3     
   12    8   15 1     
   13    9   10 ar    
   14    9   11 ar    
@<TRIPOS>SUBSTRUCTURE
      1 ****           1
@<TRIPOS>SET
DONOR_HYDROGENS      STATIC     ATOMS    <user>   **** ""
3 2 3 4
ATOM$RED        STATIC     ATOMS    COLORGROUP SYSTEM
3 2 3 4
