#       Name:                LPX
#       Creating user name   gbret
#       Creation time:       Fri Sep  9 11:40:06 2016


#       File generated by GOLD software.
#

@<TRIPOS>MOLECULE
LPX
    74    73     1
SMALL
NO_CHARGES


@<TRIPOS>ATOM
      1 C1          -4.1577  12.2455   7.2832 C.3            1 <1>                0.0000
      2 C2          -4.1369  10.7156   7.2748 C.3            1 <1>                0.0000
      3 C3          -3.4208  10.2222   6.0160 C.3            1 <1>                0.0000
      4 C4          -3.4000   8.6924   6.0076 C.3            1 <1>                0.0000
      5 C5          -2.6839   8.1990   4.7488 C.3            1 <1>                0.0000
      6 C6          -2.6632   6.6691   4.7404 C.3            1 <1>                0.0000
      7 C7          -1.9470   6.1757   3.4816 C.3            1 <1>                0.0000
      8 C8          -1.9263   4.6459   3.4732 C.3            1 <1>                0.0000
      9 C9          -1.2101   4.1524   2.2144 C.3            1 <1>                0.0000
     10 C10         -1.1894   2.6226   2.2060 C.3            1 <1>                0.0000
     11 C11         -0.4732   2.1292   0.9471 C.3            1 <1>                0.0000
     12 C12         -0.4525   0.5994   0.9387 C.3            1 <1>                0.0000
     13 C13          0.2636   0.1059  -0.3201 C.3            1 <1>                0.0000
     14 C14          0.2844  -1.4239  -0.3285 C.3            1 <1>                0.0000
     15 C15          1.0005  -1.9173  -1.5873 C.3            1 <1>                0.0000
     16 C16          1.0210  -3.4242  -1.5956 C.2            1 <1>                0.0000
     17 O17          0.5147  -4.0402  -0.6878 O.2            1 <1>                0.0000
     18 O18          1.6016  -4.0819  -2.6114 O.3            1 <1>                0.0000
     19 C19          1.5839  -5.5326  -2.5532 C.3            1 <1>                0.0000
     20 C20          2.2870  -6.1012  -3.7875 C.3            1 <1>                0.0000
     21 O21          3.6689  -5.7385  -3.7579 O.3            1 <1>                0.0000
     22 C22          2.1598  -7.6259  -3.7898 C.3            1 <1>                0.0000
     23 O23          2.7138  -8.1482  -4.9991 O.3            1 <1>                0.0000
     24 P24          2.7496  -9.7215  -5.3393 P.3            1 <1>                0.0000
     25 O25          3.6655 -10.4463  -4.3280 O.co2          1 <1>                0.0000
     26 O26          1.3204 -10.3010  -5.2471 O.co2          1 <1>                0.0000
     27 O27          3.3204  -9.9354  -6.8294 O.3            1 <1>                0.0000
     28 C28          3.3777 -11.2141  -7.4647 C.3            1 <1>                0.0000
     29 C29          3.9703 -11.0608  -8.8669 C.3            1 <1>                0.0000
     30 N30          5.3664 -10.6158  -8.7625 N.4            1 <1>                0.0000
     31 H31          5.8993 -11.2986  -8.2450 H              1 <1>                0.0000
     32 H32          5.7572 -10.5147  -9.6873 H              1 <1>                0.0000
     33 H33          5.4016  -9.7284  -8.2837 H              1 <1>                0.0000
     34 H34         -3.1351  12.6228   7.2755 H              1 <1>                0.0000
     35 H35         -4.6849  12.6065   6.4002 H              1 <1>                0.0000
     36 H36         -4.6679  12.5970   8.1800 H              1 <1>                0.0000
     37 H37         -3.6097  10.3546   8.1579 H              1 <1>                0.0000
     38 H38         -5.1595  10.3383   7.2826 H              1 <1>                0.0000
     39 H39         -3.9480  10.5833   5.1330 H              1 <1>                0.0000
     40 H40         -2.3982  10.5995   6.0083 H              1 <1>                0.0000
     41 H41         -2.8729   8.3313   6.8907 H              1 <1>                0.0000
     42 H42         -4.4226   8.3151   6.0153 H              1 <1>                0.0000
     43 H43         -3.2111   8.5600   3.8657 H              1 <1>                0.0000
     44 H44         -1.6613   8.5762   4.7411 H              1 <1>                0.0000
     45 H45         -2.1360   6.3080   5.6234 H              1 <1>                0.0000
     46 H46         -3.6857   6.2918   4.7481 H              1 <1>                0.0000
     47 H47         -2.4742   6.5368   2.5985 H              1 <1>                0.0000
     48 H48         -0.9244   6.5530   3.4738 H              1 <1>                0.0000
     49 H49         -1.3991   4.2848   4.3562 H              1 <1>                0.0000
     50 H50         -2.9489   4.2686   3.4809 H              1 <1>                0.0000
     51 H51         -1.7373   4.5135   1.3313 H              1 <1>                0.0000
     52 H52         -0.1875   4.5297   2.2066 H              1 <1>                0.0000
     53 H53         -0.6622   2.2615   3.0890 H              1 <1>                0.0000
     54 H54         -2.2120   2.2453   2.2137 H              1 <1>                0.0000
     55 H55         -1.0004   2.4903   0.0641 H              1 <1>                0.0000
     56 H56          0.5494   2.5065   0.9394 H              1 <1>                0.0000
     57 H57          0.0747   0.2383   1.8218 H              1 <1>                0.0000
     58 H58         -1.4751   0.2221   0.9465 H              1 <1>                0.0000
     59 H59         -0.2635   0.4670  -1.2031 H              1 <1>                0.0000
     60 H60          1.2862   0.4832  -0.3278 H              1 <1>                0.0000
     61 H61          0.8116  -1.7850   0.5546 H              1 <1>                0.0000
     62 H62         -0.7382  -1.8012  -0.3207 H              1 <1>                0.0000
     63 H63          0.4733  -1.5562  -2.4703 H              1 <1>                0.0000
     64 H64          2.0231  -1.5400  -1.5950 H              1 <1>                0.0000
     65 H65          2.1017  -5.8665  -1.6541 H              1 <1>                0.0000
     66 H66          0.5519  -5.8827  -2.5294 H              1 <1>                0.0000
     67 H67          1.8244  -5.6966  -4.6877 H              1 <1>                0.0000
     68 H68          4.1448  -6.0657  -2.9823 H              1 <1>                0.0000
     69 H69          2.6988  -8.0367  -2.9361 H              1 <1>                0.0000
     70 H70          1.1077  -7.9028  -3.7227 H              1 <1>                0.0000
     71 H71          4.0047 -11.8843  -6.8766 H              1 <1>                0.0000
     72 H72          2.3723 -11.6286  -7.5385 H              1 <1>                0.0000
     73 H73          3.9323 -12.0195  -9.3843 H              1 <1>                0.0000
     74 H74          3.3947 -10.3232  -9.4260 H              1 <1>                0.0000
@<TRIPOS>BOND
    1    1    2 1     
    2    1   34 1     
    3    1   35 1     
    4    1   36 1     
    5    2    3 1     
    6    2   37 1     
    7    2   38 1     
    8    3    4 1     
    9    3   39 1     
   10    3   40 1     
   11    4    5 1     
   12    4   41 1     
   13    4   42 1     
   14    5    6 1     
   15    5   43 1     
   16    5   44 1     
   17    6    7 1     
   18    6   45 1     
   19    6   46 1     
   20    7    8 1     
   21    7   47 1     
   22    7   48 1     
   23    8    9 1     
   24    8   49 1     
   25    8   50 1     
   26    9   10 1     
   27    9   51 1     
   28    9   52 1     
   29   10   11 1     
   30   10   53 1     
   31   10   54 1     
   32   11   12 1     
   33   11   55 1     
   34   11   56 1     
   35   12   13 1     
   36   12   57 1     
   37   12   58 1     
   38   13   14 1     
   39   13   59 1     
   40   13   60 1     
   41   14   15 1     
   42   14   61 1     
   43   14   62 1     
   44   15   16 1     
   45   15   63 1     
   46   15   64 1     
   47   16   17 2     
   48   16   18 1     
   49   18   19 1     
   50   19   20 1     
   51   19   65 1     
   52   19   66 1     
   53   20   21 1     
   54   20   22 1     
   55   20   67 1     
   56   21   68 1     
   57   22   23 1     
   58   22   69 1     
   59   22   70 1     
   60   23   24 1     
   61   24   25 ar    
   62   24   26 ar    
   63   24   27 1     
   64   27   28 1     
   65   28   29 1     
   66   28   71 1     
   67   28   72 1     
   68   29   30 1     
   69   29   73 1     
   70   29   74 1     
   71   30   31 1     
   72   30   32 1     
   73   30   33 1     
@<TRIPOS>SUBSTRUCTURE
      1 ****           1
@<TRIPOS>SET
DONOR_HYDROGENS      STATIC     ATOMS    <user>   **** ""
4 68 31 32 33
ATOM$RED        STATIC     ATOMS    COLORGROUP SYSTEM
4 68 31 32 33
