#       Name:                LTN
#       Creating user name   gbret
#       Creation time:       Fri Sep  9 11:43:33 2016


#       File generated by GOLD software.
#

@<TRIPOS>MOLECULE
LTN
    29    30     1
SMALL
NO_CHARGES


@<TRIPOS>ATOM
      1 N1           2.5732   3.4124  -0.8436 N.am           1 <1>                0.0000
      2 C2           2.5915   2.0647  -0.8510 C.2            1 <1>                0.0000
      3 O3           3.6499   1.4727  -0.8643 O.2            1 <1>                0.0000
      4 C4           1.2968   1.2935  -0.8428 C.3            1 <1>                0.0000
      5 N5           1.5375  -0.0726  -1.3261 N.4            1 <1>                0.0000
      6 H6           1.9020  -0.0374  -2.2663 H              1 <1>                0.0000
      7 H7           2.2052  -0.5299  -0.7234 H              1 <1>                0.0000
      8 H8           0.6706  -0.5889  -1.3206 H              1 <1>                0.0000
      9 C9           0.7440   1.2401   0.5829 C.3            1 <1>                0.0000
     10 C10         -0.6091   0.5767   0.5725 C.2            1 <1>                0.0000
     11 C11         -1.8000   1.1928   0.5087 C.2            1 <1>                0.0000
     12 N12         -2.8061   0.2655   0.5203 N.pl3          1 <1>                0.0000
     13 H13         -3.7534   0.4705   0.4824 H              1 <1>                0.0000
     14 C14         -2.2735  -1.0021   0.5937 C.ar           1 <1>                0.0000
     15 C15         -2.8330  -2.2752   0.6350 C.ar           1 <1>                0.0000
     16 C16         -2.0141  -3.3803   0.7104 C.ar           1 <1>                0.0000
     17 C17         -0.6336  -3.2375   0.7456 C.ar           1 <1>                0.0000
     18 C18         -0.0630  -1.9968   0.7061 C.ar           1 <1>                0.0000
     19 C19         -0.8740  -0.8631   0.6237 C.ar           1 <1>                0.0000
     20 H20          3.4066   3.9088  -0.8529 H              1 <1>                0.0000
     21 H21          1.7267   3.8859  -0.8330 H              1 <1>                0.0000
     22 H22          0.5755   1.7875  -1.4938 H              1 <1>                0.0000
     23 H23          1.4239   0.6689   1.2150 H              1 <1>                0.0000
     24 H24          0.6490   2.2531   0.9739 H              1 <1>                0.0000
     25 H25         -1.9429   2.2620   0.4566 H              1 <1>                0.0000
     26 H26         -3.9058  -2.3967   0.6084 H              1 <1>                0.0000
     27 H27         -2.4504  -4.3677   0.7427 H              1 <1>                0.0000
     28 H28         -0.0057  -4.1143   0.8051 H              1 <1>                0.0000
     29 H29          1.0117  -1.8934   0.7339 H              1 <1>                0.0000
@<TRIPOS>BOND
    1    1    2 am    
    2    1   20 1     
    3    1   21 1     
    4    2    3 2     
    5    2    4 1     
    6    4    5 1     
    7    4    9 1     
    8    4   22 1     
    9    5    6 1     
   10    5    7 1     
   11    5    8 1     
   12    9   10 1     
   13    9   23 1     
   14    9   24 1     
   15   10   19 1     
   16   10   11 2     
   17   11   12 1     
   18   11   25 1     
   19   12   13 1     
   20   12   14 1     
   21   14   19 ar    
   22   14   15 ar    
   23   15   16 ar    
   24   15   26 1     
   25   16   17 ar    
   26   16   27 1     
   27   17   18 ar    
   28   17   28 1     
   29   18   19 ar    
   30   18   29 1     
@<TRIPOS>SUBSTRUCTURE
      1 ****           1
@<TRIPOS>SET
DONOR_HYDROGENS      STATIC     ATOMS    <user>   **** ""
6 20 21 6 7 8 13
ATOM$RED        STATIC     ATOMS    COLORGROUP SYSTEM
6 20 21 6 7 8 13
