#       Name:                LXX
#       Creating user name   gbret
#       Creation time:       Fri Sep  9 11:47:08 2016


#       File generated by GOLD software.
#

@<TRIPOS>MOLECULE
LXX
    38    42     1
SMALL
NO_CHARGES


@<TRIPOS>ATOM
      1 C1           0.6844   5.8873   0.0201 C.2            1 <1>                0.0000
      2 N2           1.9199   6.2987   0.0106 N.2            1 <1>                0.0000
      3 N3           2.7907   5.2051  -0.0036 N.pl3          1 <1>                0.0000
      4 H4           3.7592   5.2586  -0.0123 H              1 <1>                0.0000
      5 C5           2.0612   4.0471  -0.0029 C.ar           1 <1>                0.0000
      6 N6           2.3934   2.7611  -0.0133 N.ar           1 <1>                0.0000
      7 C7           1.4862   1.8119  -0.0101 C.ar           1 <1>                0.0000
      8 C8           0.1191   2.1099   0.0045 C.ar           1 <1>                0.0000
      9 C9          -0.2863   3.4411   0.0159 C.ar           1 <1>                0.0000
     10 C10          0.7042   4.4282   0.0121 C.ar           1 <1>                0.0000
     11 C11         -0.8866   1.0193   0.0073 C.ar           1 <1>                0.0000
     12 C12         -2.2551   1.3323   0.0162 C.ar           1 <1>                0.0000
     13 C13         -3.1950   0.3521   0.0194 C.ar           1 <1>                0.0000
     14 C14         -2.8040  -0.9999   0.0136 C.ar           1 <1>                0.0000
     15 N15         -3.7173  -1.9759   0.0165 N.ar           1 <1>                0.0000
     16 C16         -3.3766  -3.2421   0.0110 C.ar           1 <1>                0.0000
     17 C17         -2.0458  -3.6449   0.0017 C.ar           1 <1>                0.0000
     18 C18         -1.0400  -2.6883  -0.0019 C.ar           1 <1>                0.0000
     19 C19          0.3886  -3.0803  -0.0112 C.ar           1 <1>                0.0000
     20 C20          1.2816  -2.5201  -0.9306 C.ar           1 <1>                0.0000
     21 C21          2.6039  -2.9135  -0.9039 C.ar           1 <1>                0.0000
     22 N22          3.0280  -3.8040  -0.0279 N.ar           1 <1>                0.0000
     23 C23          2.2194  -4.3564   0.8558 C.ar           1 <1>                0.0000
     24 C24          0.8829  -4.0166   0.9029 C.ar           1 <1>                0.0000
     25 C25         -1.4248  -1.3230   0.0042 C.ar           1 <1>                0.0000
     26 C26         -0.4701  -0.3001  -0.0046 C.ar           1 <1>                0.0000
     27 H27         -0.1958   6.5129   0.0359 H              1 <1>                0.0000
     28 H28          1.8019   0.7791  -0.0194 H              1 <1>                0.0000
     29 H29         -1.3338   3.7038   0.0269 H              1 <1>                0.0000
     30 H30         -2.5646   2.3670   0.0210 H              1 <1>                0.0000
     31 H31         -4.2436   0.6104   0.0266 H              1 <1>                0.0000
     32 H32         -4.1520  -3.9939   0.0140 H              1 <1>                0.0000
     33 H33         -1.7962  -4.6957  -0.0023 H              1 <1>                0.0000
     34 H34          0.9411  -1.7908  -1.6508 H              1 <1>                0.0000
     35 H35          3.3009  -2.4869  -1.6099 H              1 <1>                0.0000
     36 H36          2.6096  -5.0814   1.5548 H              1 <1>                0.0000
     37 H37          0.2265  -4.4730   1.6291 H              1 <1>                0.0000
     38 H38          0.5832  -0.5385  -0.0163 H              1 <1>                0.0000
@<TRIPOS>BOND
    1    1   10 1     
    2    1    2 2     
    3    1   27 1     
    4    2    3 1     
    5    3    4 1     
    6    3    5 1     
    7    5   10 ar    
    8    5    6 ar    
    9    6    7 ar    
   10    7    8 ar    
   11    7   28 1     
   12    8    9 ar    
   13    8   11 1     
   14    9   10 ar    
   15    9   29 1     
   16   11   26 ar    
   17   11   12 ar    
   18   12   13 ar    
   19   12   30 1     
   20   13   14 ar    
   21   13   31 1     
   22   14   25 ar    
   23   14   15 ar    
   24   15   16 ar    
   25   16   17 ar    
   26   16   32 1     
   27   17   18 ar    
   28   17   33 1     
   29   18   19 1     
   30   18   25 ar    
   31   19   24 ar    
   32   19   20 ar    
   33   20   21 ar    
   34   20   34 1     
   35   21   22 ar    
   36   21   35 1     
   37   22   23 ar    
   38   23   24 ar    
   39   23   36 1     
   40   24   37 1     
   41   25   26 ar    
   42   26   38 1     
@<TRIPOS>SUBSTRUCTURE
      1 ****           1
@<TRIPOS>SET
DONOR_HYDROGENS      STATIC     ATOMS    <user>   **** ""
1 4
ATOM$RED        STATIC     ATOMS    COLORGROUP SYSTEM
1 4
