#       Name:                LZ1
#       Creating user name   gbret
#       Creation time:       Fri Sep  9 11:49:27 2016


#       File generated by GOLD software.
#

@<TRIPOS>MOLECULE
LZ1
    15    16     1
SMALL
NO_CHARGES


@<TRIPOS>ATOM
      1 C1          -0.5411   2.1631   0.0163 C.2            1 <1>                0.0000
      2 N2           0.6935   2.5778   0.0068 N.2            1 <1>                0.0000
      3 N3           1.5670   1.4855  -0.0074 N.pl3          1 <1>                0.0000
      4 H4           2.5355   1.5394  -0.0161 H              1 <1>                0.0000
      5 C5           0.8353   0.3268  -0.0066 C.ar           1 <1>                0.0000
      6 C6           1.1693  -1.0254  -0.0167 C.ar           1 <1>                0.0000
      7 C7           0.1823  -1.9696  -0.0120 C.ar           1 <1>                0.0000
      8 C8          -1.1570  -1.5993   0.0023 C.ar           1 <1>                0.0000
      9 C9          -1.5142  -0.2822   0.0124 C.ar           1 <1>                0.0000
     10 C10         -0.5213   0.7040   0.0083 C.ar           1 <1>                0.0000
     11 H11         -1.4221   2.7876   0.0321 H              1 <1>                0.0000
     12 H12          2.2064  -1.3266  -0.0285 H              1 <1>                0.0000
     13 H13          0.4461  -3.0169  -0.0198 H              1 <1>                0.0000
     14 H14         -1.9226  -2.3611   0.0051 H              1 <1>                0.0000
     15 H15         -2.5573  -0.0026   0.0231 H              1 <1>                0.0000
@<TRIPOS>BOND
    1    1   10 1     
    2    1    2 2     
    3    1   11 1     
    4    2    3 1     
    5    3    4 1     
    6    3    5 1     
    7    5   10 ar    
    8    5    6 ar    
    9    6    7 ar    
   10    6   12 1     
   11    7    8 ar    
   12    7   13 1     
   13    8    9 ar    
   14    8   14 1     
   15    9   10 ar    
   16    9   15 1     
@<TRIPOS>SUBSTRUCTURE
      1 ****           1
@<TRIPOS>SET
DONOR_HYDROGENS      STATIC     ATOMS    <user>   **** ""
1 4
ATOM$RED        STATIC     ATOMS    COLORGROUP SYSTEM
1 4
