#       Name:                LZE
#       Creating user name   gbret
#       Creation time:       Fri Sep  9 11:50:19 2016


#       File generated by GOLD software.
#

@<TRIPOS>MOLECULE
LZE
    43    45     1
SMALL
NO_CHARGES


@<TRIPOS>ATOM
      1 Cl1         -3.7135  -1.2411   3.6106 Cl             1 <1>                0.0000
      2 C2          -3.7371   0.4947   3.6202 C.ar           1 <1>                0.0000
      3 C3          -4.9411   1.1706   3.6411 C.ar           1 <1>                0.0000
      4 C4          -4.9619   2.5538   3.6487 C.ar           1 <1>                0.0000
      5 C5          -3.7788   3.2705   3.6355 C.ar           1 <1>                0.0000
      6 C6          -2.5668   2.6089   3.6146 C.ar           1 <1>                0.0000
      7 Cl7         -1.0834   3.5105   3.5975 Cl             1 <1>                0.0000
      8 C8          -2.5375   1.2117   3.6126 C.ar           1 <1>                0.0000
      9 C9          -1.2457   0.4966   3.5907 C.2            1 <1>                0.0000
     10 O10         -0.6967   0.2010   4.6346 O.2            1 <1>                0.0000
     11 N11         -0.6752   0.1715   2.4137 N.am           1 <1>                0.0000
     12 C12          0.5520  -0.5078   2.3930 C.2            1 <1>                0.0000
     13 C13          1.2874  -0.9132   3.4624 C.2            1 <1>                0.0000
     14 N14          2.3955  -1.5273   2.9740 N.pl3          1 <1>                0.0000
     15 H15          3.0990  -1.9165   3.5167 H              1 <1>                0.0000
     16 N16          2.3776  -1.5195   1.6897 N.2            1 <1>                0.0000
     17 C17          1.2857  -0.9229   1.2517 C.2            1 <1>                0.0000
     18 C18          0.9048  -0.7166  -0.1584 C.2            1 <1>                0.0000
     19 O19         -0.1354  -0.1486  -0.4302 O.2            1 <1>                0.0000
     20 N20          1.7096  -1.1578  -1.1453 N.am           1 <1>                0.0000
     21 C21          1.3313  -0.9529  -2.5457 C.3            1 <1>                0.0000
     22 C22          1.7917   0.4342  -3.0029 C.3            1 <1>                0.0000
     23 C23          1.4645   0.6107  -4.4872 C.3            1 <1>                0.0000
     24 N24          2.1574  -0.4193  -5.2705 N.4            1 <1>                0.0000
     25 H25          1.9827  -0.2678  -6.2527 H              1 <1>                0.0000
     26 H26          3.1493  -0.3641  -5.0940 H              1 <1>                0.0000
     27 C27          1.6685  -1.7492  -4.8876 C.3            1 <1>                0.0000
     28 C28          2.0035  -2.0165  -3.4186 C.3            1 <1>                0.0000
     29 H29         -5.8689   0.6179   3.6511 H              1 <1>                0.0000
     30 H30         -5.9066   3.0768   3.6647 H              1 <1>                0.0000
     31 H31         -3.8030   4.3502   3.6413 H              1 <1>                0.0000
     32 H32         -1.1131   0.4073   1.5810 H              1 <1>                0.0000
     33 H33          1.0374  -0.7731   4.5037 H              1 <1>                0.0000
     34 H34          2.5394  -1.6109  -0.9284 H              1 <1>                0.0000
     35 H35          0.2487  -1.0302  -2.6458 H              1 <1>                0.0000
     36 H36          1.2749   1.1988  -2.4229 H              1 <1>                0.0000
     37 H37          2.8674   0.5282  -2.8536 H              1 <1>                0.0000
     38 H38          0.3887   0.5168  -4.6354 H              1 <1>                0.0000
     39 H39          1.7909   1.5974  -4.8160 H              1 <1>                0.0000
     40 H40          0.5883  -1.7928  -5.0272 H              1 <1>                0.0000
     41 H41          2.1454  -2.5048  -5.5119 H              1 <1>                0.0000
     42 H42          3.0836  -1.9734  -3.2780 H              1 <1>                0.0000
     43 H43          1.6381  -3.0037  -3.1358 H              1 <1>                0.0000
@<TRIPOS>BOND
    1    1    2 1     
    2    2    8 ar    
    3    2    3 ar    
    4    3    4 ar    
    5    3   29 1     
    6    4    5 ar    
    7    4   30 1     
    8    5    6 ar    
    9    5   31 1     
   10    6    7 1     
   11    6    8 ar    
   12    8    9 1     
   13    9   10 2     
   14    9   11 am    
   15   11   12 1     
   16   11   32 1     
   17   12   17 1     
   18   12   13 2     
   19   13   14 1     
   20   13   33 1     
   21   14   15 1     
   22   14   16 1     
   23   16   17 2     
   24   17   18 1     
   25   18   19 2     
   26   18   20 am    
   27   20   21 1     
   28   20   34 1     
   29   21   28 1     
   30   21   22 1     
   31   21   35 1     
   32   22   23 1     
   33   22   36 1     
   34   22   37 1     
   35   23   24 1     
   36   23   38 1     
   37   23   39 1     
   38   24   25 1     
   39   24   26 1     
   40   24   27 1     
   41   27   28 1     
   42   27   40 1     
   43   27   41 1     
   44   28   42 1     
   45   28   43 1     
@<TRIPOS>SUBSTRUCTURE
      1 ****           1
@<TRIPOS>SET
DONOR_HYDROGENS      STATIC     ATOMS    <user>   **** ""
5 32 15 34 25 26
ATOM$RED        STATIC     ATOMS    COLORGROUP SYSTEM
5 32 15 34 25 26
