#       Name:                LZT
#       Creating user name   gbret
#       Creation time:       Fri Sep  9 11:51:14 2016


#       File generated by GOLD software.
#

@<TRIPOS>MOLECULE
LZT
    82    85     1
SMALL
NO_CHARGES


@<TRIPOS>ATOM
      1 C1          -2.8183  10.2816  -0.7513 C.3            1 <1>                0.0000
      2 O2          -2.7989   8.8527  -0.7592 O.3            1 <1>                0.0000
      3 C3          -2.1963   8.2508  -1.8150 C.ar           1 <1>                0.0000
      4 C4          -1.6282   9.0221  -2.8233 C.ar           1 <1>                0.0000
      5 C5          -1.0205   8.4229  -3.8872 C.ar           1 <1>                0.0000
      6 C6          -0.9637   7.0210  -3.9736 C.ar           1 <1>                0.0000
      7 C7          -0.3720   6.1623  -5.0086 C.2            1 <1>                0.0000
      8 O8           0.1947   6.5437  -6.0110 O.2            1 <1>                0.0000
      9 C9          -0.5915   4.7235  -4.6088 C.3            1 <1>                0.0000
     10 C10         -1.3486   4.7833  -3.2749 C.3            1 <1>                0.0000
     11 C11         -0.5277   4.1091  -2.1738 C.3            1 <1>                0.0000
     12 C12         -0.4188   2.6336  -2.4605 C.2            1 <1>                0.0000
     13 O13         -0.9457   2.1673  -3.4483 O.2            1 <1>                0.0000
     14 N14          0.2643   1.8323  -1.6192 N.am           1 <1>                0.0000
     15 C15          0.3703   0.3980  -1.8980 C.3            1 <1>                0.0000
     16 C16          1.5406   0.1488  -2.8514 C.3            1 <1>                0.0000
     17 C17          1.3651   1.0032  -4.1085 C.3            1 <1>                0.0000
     18 O18          2.7653   0.4996  -2.2042 O.3            1 <1>                0.0000
     19 C19          0.6042  -0.3482  -0.6097 C.2            1 <1>                0.0000
     20 O20          0.6755   0.2584   0.4381 O.2            1 <1>                0.0000
     21 N21          0.7343  -1.6896  -0.6220 N.am           1 <1>                0.0000
     22 C22          0.9618  -2.4149   0.6304 C.3            1 <1>                0.0000
     23 C23         -0.3810  -2.6981   1.3068 C.3            1 <1>                0.0000
     24 C24         -1.0340  -1.3768   1.7173 C.3            1 <1>                0.0000
     25 C25         -2.3567  -1.6557   2.3836 C.ar           1 <1>                0.0000
     26 C26         -3.5103  -1.7299   1.6257 C.ar           1 <1>                0.0000
     27 C27         -4.7235  -1.9858   2.2368 C.ar           1 <1>                0.0000
     28 C28         -4.7830  -2.1679   3.6059 C.ar           1 <1>                0.0000
     29 C29         -3.6292  -2.0946   4.3636 C.ar           1 <1>                0.0000
     30 C30         -2.4154  -1.8430   3.7519 C.ar           1 <1>                0.0000
     31 C31          1.6609  -3.7173   0.3368 C.2            1 <1>                0.0000
     32 O32          1.9415  -4.0106  -0.8061 O.2            1 <1>                0.0000
     33 N33          1.9743  -4.5560   1.3441 N.am           1 <1>                0.0000
     34 C34          2.6539  -5.8220   1.0587 C.3            1 <1>                0.0000
     35 C35          2.8879  -6.5681   2.3469 C.ar           1 <1>                0.0000
     36 C36          4.0532  -6.3641   3.0620 C.ar           1 <1>                0.0000
     37 C37          4.2679  -7.0486   4.2437 C.ar           1 <1>                0.0000
     38 C38          3.3169  -7.9366   4.7106 C.ar           1 <1>                0.0000
     39 C39          3.5511  -8.6831   5.9986 C.3            1 <1>                0.0000
     40 C40          2.1510  -8.1396   3.9962 C.ar           1 <1>                0.0000
     41 C41          1.9347  -7.4523   2.8165 C.ar           1 <1>                0.0000
     42 C42         -1.5348   6.2481  -2.9600 C.ar           1 <1>                0.0000
     43 C43         -2.1420   6.8638  -1.8854 C.ar           1 <1>                0.0000
     44 H44         -1.7957  10.6589  -0.7591 H              1 <1>                0.0000
     45 H45         -3.3455  10.6427  -1.6344 H              1 <1>                0.0000
     46 H46         -3.3285  10.6331   0.1455 H              1 <1>                0.0000
     47 H47         -1.6688  10.0997  -2.7637 H              1 <1>                0.0000
     48 H48         -0.5814   9.0280  -4.6667 H              1 <1>                0.0000
     49 H49         -1.1908   4.2099  -5.3605 H              1 <1>                0.0000
     50 H50          0.3653   4.2179  -4.4776 H              1 <1>                0.0000
     51 H51         -2.3177   4.2940  -3.3721 H              1 <1>                0.0000
     52 H52          0.4695   4.5480  -2.1436 H              1 <1>                0.0000
     53 H53         -1.0191   4.2570  -1.2121 H              1 <1>                0.0000
     54 H54          0.6858   2.2053  -0.8292 H              1 <1>                0.0000
     55 H55         -0.5539   0.0480  -2.3578 H              1 <1>                0.0000
     56 H56          1.5652  -0.9050  -3.1289 H              1 <1>                0.0000
     57 H57          2.1989   0.8257  -4.7877 H              1 <1>                0.0000
     58 H58          0.4309   0.7356  -4.6022 H              1 <1>                0.0000
     59 H59          1.3406   2.0570  -3.8310 H              1 <1>                0.0000
     60 H60          3.5515   0.3669  -2.7514 H              1 <1>                0.0000
     61 H61          0.6773  -2.1748  -1.4600 H              1 <1>                0.0000
     62 H62          1.5820  -1.8109   1.2926 H              1 <1>                0.0000
     63 H63         -1.0340  -3.2256   0.6115 H              1 <1>                0.0000
     64 H64         -0.2194  -3.3138   2.1917 H              1 <1>                0.0000
     65 H65         -0.3810  -0.8493   2.4126 H              1 <1>                0.0000
     66 H66         -1.1957  -0.7611   0.8324 H              1 <1>                0.0000
     67 H67         -3.4639  -1.5876   0.5561 H              1 <1>                0.0000
     68 H68         -5.6250  -2.0431   1.6448 H              1 <1>                0.0000
     69 H69         -5.7310  -2.3671   4.0834 H              1 <1>                0.0000
     70 H70         -3.6757  -2.2366   5.4333 H              1 <1>                0.0000
     71 H71         -1.5139  -1.7857   4.3439 H              1 <1>                0.0000
     72 H72          1.7498  -4.3213   2.2582 H              1 <1>                0.0000
     73 H73          2.0337  -6.4260   0.3965 H              1 <1>                0.0000
     74 H74          3.6105  -5.6202   0.5768 H              1 <1>                0.0000
     75 H75          4.7962  -5.6703   2.6972 H              1 <1>                0.0000
     76 H76          5.1786  -6.8897   4.8019 H              1 <1>                0.0000
     77 H77          3.1546  -8.1032   6.8319 H              1 <1>                0.0000
     78 H78          3.0473  -9.6487   5.9556 H              1 <1>                0.0000
     79 H79          4.6209  -8.8374   6.1397 H              1 <1>                0.0000
     80 H80          1.4079  -8.8331   4.3612 H              1 <1>                0.0000
     81 H81          1.0237  -7.6109   2.2584 H              1 <1>                0.0000
     82 H82         -2.5790   6.2668  -1.0986 H              1 <1>                0.0000
@<TRIPOS>BOND
    1    1    2 1     
    2    1   44 1     
    3    1   45 1     
    4    1   46 1     
    5    2    3 1     
    6    3   43 ar    
    7    3    4 ar    
    8    4    5 ar    
    9    4   47 1     
   10    5    6 ar    
   11    5   48 1     
   12    6   42 ar    
   13    6    7 1     
   14    7    8 2     
   15    7    9 1     
   16    9   10 1     
   17    9   49 1     
   18    9   50 1     
   19   10   11 1     
   20   10   42 1     
   21   10   51 1     
   22   11   12 1     
   23   11   52 1     
   24   11   53 1     
   25   12   13 2     
   26   12   14 am    
   27   14   15 1     
   28   14   54 1     
   29   15   16 1     
   30   15   19 1     
   31   15   55 1     
   32   16   17 1     
   33   16   18 1     
   34   16   56 1     
   35   17   57 1     
   36   17   58 1     
   37   17   59 1     
   38   18   60 1     
   39   19   20 2     
   40   19   21 am    
   41   21   22 1     
   42   21   61 1     
   43   22   23 1     
   44   22   31 1     
   45   22   62 1     
   46   23   24 1     
   47   23   63 1     
   48   23   64 1     
   49   24   25 1     
   50   24   65 1     
   51   24   66 1     
   52   25   30 ar    
   53   25   26 ar    
   54   26   27 ar    
   55   26   67 1     
   56   27   28 ar    
   57   27   68 1     
   58   28   29 ar    
   59   28   69 1     
   60   29   30 ar    
   61   29   70 1     
   62   30   71 1     
   63   31   32 2     
   64   31   33 am    
   65   33   34 1     
   66   33   72 1     
   67   34   35 1     
   68   34   73 1     
   69   34   74 1     
   70   35   41 ar    
   71   35   36 ar    
   72   36   37 ar    
   73   36   75 1     
   74   37   38 ar    
   75   37   76 1     
   76   38   39 1     
   77   38   40 ar    
   78   39   77 1     
   79   39   78 1     
   80   39   79 1     
   81   40   41 ar    
   82   40   80 1     
   83   41   81 1     
   84   42   43 ar    
   85   43   82 1     
@<TRIPOS>SUBSTRUCTURE
      1 ****           1
@<TRIPOS>SET
DONOR_HYDROGENS      STATIC     ATOMS    <user>   **** ""
4 54 60 61 72
ATOM$RED        STATIC     ATOMS    COLORGROUP SYSTEM
4 54 60 61 72
