#       Name:                M35
#       Creating user name   gbret
#       Creation time:       Fri Sep  9 11:55:13 2016


#       File generated by GOLD software.
#

@<TRIPOS>MOLECULE
M35
    58    61     1
SMALL
NO_CHARGES


@<TRIPOS>ATOM
      1 C1           4.4951   0.5452   1.1969 C.3            1 <1>                0.0000
      2 S2           4.6267  -1.2603   1.0803 S.o2           1 <1>                0.0000
      3 O3           5.5092  -1.7612   2.0750 O.2            1 <1>                0.0000
      4 O4           3.3460  -1.8415   0.8773 O.2            1 <1>                0.0000
      5 C5           5.4772  -1.5420  -0.4369 C.ar           1 <1>                0.0000
      6 C6           6.7131  -2.1566  -0.4329 C.ar           1 <1>                0.0000
      7 C7           7.3819  -2.3784  -1.6231 C.ar           1 <1>                0.0000
      8 C8           6.8172  -1.9857  -2.8235 C.ar           1 <1>                0.0000
      9 C9           5.5821  -1.3704  -2.8394 C.ar           1 <1>                0.0000
     10 C10          4.9009  -1.1500  -1.6435 C.ar           1 <1>                0.0000
     11 C11          3.5727  -0.4894  -1.6541 C.ar           1 <1>                0.0000
     12 C12          2.4396  -1.1940  -1.2505 C.ar           1 <1>                0.0000
     13 C13          1.2055  -0.5791  -1.2608 C.ar           1 <1>                0.0000
     14 C14          1.0895   0.7425  -1.6737 C.ar           1 <1>                0.0000
     15 N15         -0.1634   1.3636  -1.6837 N.am           1 <1>                0.0000
     16 C16         -1.1231   0.9588  -0.8284 C.2            1 <1>                0.0000
     17 O17         -0.9085   0.0351  -0.0663 O.2            1 <1>                0.0000
     18 C18         -2.4295   1.6335  -0.8164 C.2            1 <1>                0.0000
     19 C19         -2.8675   2.5912  -1.7097 C.2            1 <1>                0.0000
     20 C20         -4.1566   2.9612  -1.3350 C.2            1 <1>                0.0000
     21 N21         -4.5014   2.2761  -0.2728 N.2            1 <1>                0.0000
     22 N22         -3.4447   1.4270   0.0793 N.pl3          1 <1>                0.0000
     23 C23         -3.4260   0.5350   1.1584 C.ar           1 <1>                0.0000
     24 C24         -2.3166   0.4744   1.9921 C.ar           1 <1>                0.0000
     25 C25         -2.3014  -0.4061   3.0557 C.ar           1 <1>                0.0000
     26 C26         -3.3890  -1.2275   3.2910 C.ar           1 <1>                0.0000
     27 C27         -4.4947  -1.1699   2.4628 C.ar           1 <1>                0.0000
     28 C28         -5.6775  -2.0666   2.7229 C.3            1 <1>                0.0000
     29 N29         -6.6203  -1.3856   3.6204 N.4            1 <1>                0.0000
     30 H30         -6.1604  -1.1738   4.4932 H              1 <1>                0.0000
     31 H31         -6.9356  -0.5293   3.1899 H              1 <1>                0.0000
     32 H32         -7.4123  -1.9861   3.7945 H              1 <1>                0.0000
     33 C33         -4.5186  -0.2869   1.4008 C.ar           1 <1>                0.0000
     34 C34         -5.0144   3.9828  -2.0362 C.3            1 <1>                0.0000
     35 F35         -5.7762   3.3520  -3.0256 F              1 <1>                0.0000
     36 F36         -5.8667   4.5916  -1.1087 F              1 <1>                0.0000
     37 F37         -4.1966   4.9532  -2.6251 F              1 <1>                0.0000
     38 C38          2.2188   1.4490  -2.0769 C.ar           1 <1>                0.0000
     39 F39          2.1042   2.7342  -2.4772 F              1 <1>                0.0000
     40 C40          3.4569   0.8384  -2.0624 C.ar           1 <1>                0.0000
     41 H41          5.4935   0.9826   1.2027 H              1 <1>                0.0000
     42 H42          3.9371   0.9249   0.3410 H              1 <1>                0.0000
     43 H43          3.9757   0.8130   2.1170 H              1 <1>                0.0000
     44 H44          7.1590  -2.4646   0.5013 H              1 <1>                0.0000
     45 H45          8.3487  -2.8596  -1.6153 H              1 <1>                0.0000
     46 H46          7.3441  -2.1607  -3.7498 H              1 <1>                0.0000
     47 H47          5.1424  -1.0639  -3.7769 H              1 <1>                0.0000
     48 H48          2.5283  -2.2216  -0.9300 H              1 <1>                0.0000
     49 H49          0.3280  -1.1254  -0.9480 H              1 <1>                0.0000
     50 H50         -0.3417   2.0859  -2.3062 H              1 <1>                0.0000
     51 H51         -2.3105   2.9827  -2.5481 H              1 <1>                0.0000
     52 H52         -1.4667   1.1149   1.8084 H              1 <1>                0.0000
     53 H53         -1.4392  -0.4537   3.7043 H              1 <1>                0.0000
     54 H54         -3.3746  -1.9155   4.1234 H              1 <1>                0.0000
     55 H55         -6.1743  -2.2955   1.7801 H              1 <1>                0.0000
     56 H56         -5.3369  -2.9917   3.1880 H              1 <1>                0.0000
     57 H57         -5.3827  -0.2421   0.7544 H              1 <1>                0.0000
     58 H58          4.3336   1.3862  -2.3749 H              1 <1>                0.0000
@<TRIPOS>BOND
    1    1    2 1     
    2    1   41 1     
    3    1   42 1     
    4    1   43 1     
    5    2    3 2     
    6    2    4 2     
    7    2    5 1     
    8    5   10 ar    
    9    5    6 ar    
   10    6    7 ar    
   11    6   44 1     
   12    7    8 ar    
   13    7   45 1     
   14    8    9 ar    
   15    8   46 1     
   16    9   10 ar    
   17    9   47 1     
   18   10   11 1     
   19   11   40 ar    
   20   11   12 ar    
   21   12   13 ar    
   22   12   48 1     
   23   13   14 ar    
   24   13   49 1     
   25   14   15 1     
   26   14   38 ar    
   27   15   16 am    
   28   15   50 1     
   29   16   17 2     
   30   16   18 1     
   31   18   22 1     
   32   18   19 2     
   33   19   20 1     
   34   19   51 1     
   35   20   21 2     
   36   20   34 1     
   37   21   22 1     
   38   22   23 1     
   39   23   33 ar    
   40   23   24 ar    
   41   24   25 ar    
   42   24   52 1     
   43   25   26 ar    
   44   25   53 1     
   45   26   27 ar    
   46   26   54 1     
   47   27   28 1     
   48   27   33 ar    
   49   28   29 1     
   50   28   55 1     
   51   28   56 1     
   52   29   30 1     
   53   29   31 1     
   54   29   32 1     
   55   33   57 1     
   56   34   35 1     
   57   34   36 1     
   58   34   37 1     
   59   38   39 1     
   60   38   40 ar    
   61   40   58 1     
@<TRIPOS>SUBSTRUCTURE
      1 ****           1
@<TRIPOS>SET
DONOR_HYDROGENS      STATIC     ATOMS    <user>   **** ""
4 50 30 31 32
ATOM$RED        STATIC     ATOMS    COLORGROUP SYSTEM
4 50 30 31 32
