#       Name:                M8M
#       Creating user name   gbret
#       Creation time:       Fri Sep  9 12:01:35 2016


#       File generated by GOLD software.
#

@<TRIPOS>MOLECULE
M8M
    49    51     1
SMALL
NO_CHARGES


@<TRIPOS>ATOM
      1 C1           0.0750   1.6226  -2.5316 C.3            1 <1>                0.0000
      2 N2           0.3136   0.1803  -2.6762 N.4            1 <1>                0.0000
      3 H3          -0.5388  -0.3229  -2.4804 H              1 <1>                0.0000
      4 C4           0.7484  -0.1088  -4.0493 C.3            1 <1>                0.0000
      5 C5           0.8505  -1.6230  -4.2438 C.3            1 <1>                0.0000
      6 O6          -0.4435  -2.2107  -4.0947 O.3            1 <1>                0.0000
      7 N7          -0.4599  -3.6640  -4.2620 N.3            1 <1>                0.0000
      8 C8           1.3583  -0.2402  -1.7330 C.3            1 <1>                0.0000
      9 C9           0.8499  -0.0705  -0.3000 C.3            1 <1>                0.0000
     10 O10         -0.2064  -1.0165  -0.0258 O.3            1 <1>                0.0000
     11 C11         -0.2600  -1.1204   1.4137 C.3            1 <1>                0.0000
     12 C12          1.2176  -1.1261   1.8643 C.3            1 <1>                0.0000
     13 O13          1.6888  -2.4663   2.0191 O.3            1 <1>                0.0000
     14 C14          1.9645  -0.4194   0.7110 C.3            1 <1>                0.0000
     15 O15          2.9198  -1.3016   0.1183 O.3            1 <1>                0.0000
     16 N16         -0.9622   0.0327   1.9824 N.pl3          1 <1>                0.0000
     17 C17         -2.1215   0.5800   1.5190 C.2            1 <1>                0.0000
     18 C18         -2.8938   0.0855   0.3232 C.3            1 <1>                0.0000
     19 N19         -2.4632   1.5923   2.2622 N.2            1 <1>                0.0000
     20 C20         -1.5477   1.7583   3.2467 C.ar           1 <1>                0.0000
     21 C21         -1.3960   2.6608   4.3134 C.ar           1 <1>                0.0000
     22 N22         -2.3237   3.6649   4.5286 N.pl3          1 <1>                0.0000
     23 N23         -0.3414   2.5272   5.1107 N.ar           1 <1>                0.0000
     24 C24          0.5487   1.5717   4.9131 C.ar           1 <1>                0.0000
     25 N25          0.4476   0.7047   3.9280 N.ar           1 <1>                0.0000
     26 C26         -0.5769   0.7561   3.0827 C.ar           1 <1>                0.0000
     27 H27          1.0170   2.1596  -2.6427 H              1 <1>                0.0000
     28 H28         -0.6247   1.9538  -3.2989 H              1 <1>                0.0000
     29 H29         -0.3442   1.8245  -1.5459 H              1 <1>                0.0000
     30 H30          0.0238   0.2999  -4.7536 H              1 <1>                0.0000
     31 H31          1.7229   0.3466  -4.2253 H              1 <1>                0.0000
     32 H32          1.2335  -1.8361  -5.2418 H              1 <1>                0.0000
     33 H33          1.5272  -2.0403  -3.4981 H              1 <1>                0.0000
     34 H34         -1.3929  -4.0306  -4.1478 H              1 <1>                0.0000
     35 H35         -0.0740  -3.9294  -5.1557 H              1 <1>                0.0000
     36 H36          1.6066  -1.2869  -1.9088 H              1 <1>                0.0000
     37 H37          2.2473   0.3735  -1.8782 H              1 <1>                0.0000
     38 H38          0.4990   0.9492  -0.1409 H              1 <1>                0.0000
     39 H39         -0.7503  -2.0480   1.7092 H              1 <1>                0.0000
     40 H40          1.3352  -0.5710   2.7950 H              1 <1>                0.0000
     41 H41          2.6117  -2.5286   2.3010 H              1 <1>                0.0000
     42 H42          2.4518   0.4870   1.0703 H              1 <1>                0.0000
     43 H43          3.6094  -1.6008   0.7267 H              1 <1>                0.0000
     44 H44         -3.6752  -0.5991   0.6531 H              1 <1>                0.0000
     45 H45         -3.3466   0.9323  -0.1925 H              1 <1>                0.0000
     46 H46         -2.2181  -0.4345  -0.3560 H              1 <1>                0.0000
     47 H47         -3.0896   3.7519   3.9398 H              1 <1>                0.0000
     48 H48         -2.2080   4.2817   5.2683 H              1 <1>                0.0000
     49 H49          1.3913   1.4992   5.5849 H              1 <1>                0.0000
@<TRIPOS>BOND
    1    1    2 1     
    2    1   27 1     
    3    1   28 1     
    4    1   29 1     
    5    2    3 1     
    6    2    4 1     
    7    2    8 1     
    8    4    5 1     
    9    4   30 1     
   10    4   31 1     
   11    5    6 1     
   12    5   32 1     
   13    5   33 1     
   14    6    7 1     
   15    7   34 1     
   16    7   35 1     
   17    8    9 1     
   18    8   36 1     
   19    8   37 1     
   20    9   14 1     
   21    9   10 1     
   22    9   38 1     
   23   10   11 1     
   24   11   12 1     
   25   11   16 1     
   26   11   39 1     
   27   12   13 1     
   28   12   14 1     
   29   12   40 1     
   30   13   41 1     
   31   14   15 1     
   32   14   42 1     
   33   15   43 1     
   34   16   26 1     
   35   16   17 1     
   36   17   18 1     
   37   17   19 2     
   38   18   44 1     
   39   18   45 1     
   40   18   46 1     
   41   19   20 1     
   42   20   26 ar    
   43   20   21 ar    
   44   21   22 1     
   45   21   23 ar    
   46   22   47 1     
   47   22   48 1     
   48   23   24 ar    
   49   24   25 ar    
   50   24   49 1     
   51   25   26 ar    
@<TRIPOS>SUBSTRUCTURE
      1 ****           1
@<TRIPOS>SET
DONOR_HYDROGENS      STATIC     ATOMS    <user>   **** ""
7 3 34 35 41 43 47 48
ATOM$RED        STATIC     ATOMS    COLORGROUP SYSTEM
7 3 34 35 41 43 47 48
