#       Name:                M8P
#       Creating user name   gbret
#       Creation time:       Fri Sep  9 12:01:43 2016


#       File generated by GOLD software.
#

@<TRIPOS>MOLECULE
M8P
    48    51     1
SMALL
NO_CHARGES


@<TRIPOS>ATOM
      1 O1           5.5167   0.1018   0.9131 O.3            1 <1>                0.0000
      2 C2           5.5504  -1.3267   0.9198 C.3            1 <1>                0.0000
      3 C3           4.1206  -1.8705   0.9463 C.3            1 <1>                0.0000
      4 O4           3.4527  -1.5158  -0.2675 O.3            1 <1>                0.0000
      5 C5           2.1096  -1.9750  -0.3513 C.3            1 <1>                0.0000
      6 S6           1.1019  -1.2094   0.9560 S.3            1 <1>                0.0000
      7 C7           0.0284  -0.4219  -0.1358 C.2            1 <1>                0.0000
      8 N8           0.4094  -0.7201  -1.4062 N.am           1 <1>                0.0000
      9 C9           1.4569  -1.5031  -1.6255 C.2            1 <1>                0.0000
     10 O10          1.8480  -1.8065  -2.7322 O.2            1 <1>                0.0000
     11 N11         -0.9959   0.3442   0.2045 N.am           1 <1>                0.0000
     12 H12         -1.2477   0.4311   1.1372 H              1 <1>                0.0000
     13 C13         -1.6850   0.9998  -0.7394 C.2            1 <1>                0.0000
     14 O14         -1.4331   0.8143  -1.9168 O.2            1 <1>                0.0000
     15 C15         -2.7524   1.9493  -0.3515 C.ar           1 <1>                0.0000
     16 C16         -3.0345   2.1634   1.0089 C.ar           1 <1>                0.0000
     17 C17         -4.0080   3.0293   1.3902 C.ar           1 <1>                0.0000
     18 C18         -4.7497   3.7262   0.4188 C.ar           1 <1>                0.0000
     19 C19         -5.7617   4.6278   0.7885 C.ar           1 <1>                0.0000
     20 C20         -6.4622   5.2879  -0.1742 C.ar           1 <1>                0.0000
     21 C21         -6.1919   5.0840  -1.5261 C.ar           1 <1>                0.0000
     22 C22         -5.2193   4.2186  -1.9227 C.ar           1 <1>                0.0000
     23 C23         -4.4744   3.5186  -0.9566 C.ar           1 <1>                0.0000
     24 C24         -3.4607   2.6235  -1.3309 C.ar           1 <1>                0.0000
     25 C25          2.0423  -3.4942  -0.2405 C.3            1 <1>                0.0000
     26 O26          2.7129  -4.0842  -1.3559 O.3            1 <1>                0.0000
     27 C27          2.7237  -3.9371   1.0591 C.3            1 <1>                0.0000
     28 O28          2.7512  -5.3644   1.1224 O.3            1 <1>                0.0000
     29 C29          4.1564  -3.3952   1.0793 C.3            1 <1>                0.0000
     30 O30          4.8928  -3.9523  -0.0112 O.3            1 <1>                0.0000
     31 H31          6.3905   0.5158   0.8965 H              1 <1>                0.0000
     32 H32          6.0579  -1.6824   0.0231 H              1 <1>                0.0000
     33 H33          6.0874  -1.6733   1.8028 H              1 <1>                0.0000
     34 H34          3.5850  -1.4440   1.7944 H              1 <1>                0.0000
     35 H35         -0.0877  -0.3582  -2.1563 H              1 <1>                0.0000
     36 H36         -2.4697   1.6319   1.7605 H              1 <1>                0.0000
     37 H37         -4.2133   3.1829   2.4393 H              1 <1>                0.0000
     38 H38         -5.9831   4.7963   1.8320 H              1 <1>                0.0000
     39 H39         -7.2396   5.9800   0.1141 H              1 <1>                0.0000
     40 H40         -6.7627   5.6201  -2.2698 H              1 <1>                0.0000
     41 H41         -5.0206   4.0700  -2.9738 H              1 <1>                0.0000
     42 H42         -3.2378   2.4589  -2.3748 H              1 <1>                0.0000
     43 H43          0.9999  -3.8127  -0.2324 H              1 <1>                0.0000
     44 H44          2.7092  -5.0512  -1.3505 H              1 <1>                0.0000
     45 H45          2.1713  -3.5446   1.9129 H              1 <1>                0.0000
     46 H46          3.1695  -5.7147   1.9208 H              1 <1>                0.0000
     47 H47          4.6353  -3.6675   2.0199 H              1 <1>                0.0000
     48 H48          5.8107  -3.6521  -0.0601 H              1 <1>                0.0000
@<TRIPOS>BOND
    1    1    2 1     
    2    1   31 1     
    3    2    3 1     
    4    2   32 1     
    5    2   33 1     
    6    3   29 1     
    7    3    4 1     
    8    3   34 1     
    9    4    5 1     
   10    5    9 1     
   11    5    6 1     
   12    5   25 1     
   13    6    7 1     
   14    7    8 2     
   15    7   11 1     
   16    8    9 am    
   17    8   35 1     
   18    9   10 2     
   19   11   12 1     
   20   11   13 am    
   21   13   14 2     
   22   13   15 1     
   23   15   24 ar    
   24   15   16 ar    
   25   16   17 ar    
   26   16   36 1     
   27   17   18 ar    
   28   17   37 1     
   29   18   23 ar    
   30   18   19 ar    
   31   19   20 ar    
   32   19   38 1     
   33   20   21 ar    
   34   20   39 1     
   35   21   22 ar    
   36   21   40 1     
   37   22   23 ar    
   38   22   41 1     
   39   23   24 ar    
   40   24   42 1     
   41   25   26 1     
   42   25   27 1     
   43   25   43 1     
   44   26   44 1     
   45   27   28 1     
   46   27   29 1     
   47   27   45 1     
   48   28   46 1     
   49   29   30 1     
   50   29   47 1     
   51   30   48 1     
@<TRIPOS>SUBSTRUCTURE
      1 ****           1
@<TRIPOS>SET
DONOR_HYDROGENS      STATIC     ATOMS    <user>   **** ""
6 31 35 12 44 46 48
ATOM$RED        STATIC     ATOMS    COLORGROUP SYSTEM
6 31 35 12 44 46 48
