#       Name:                MAR
#       Creating user name   gbret
#       Creation time:       Fri Sep  9 12:04:20 2016


#       File generated by GOLD software.
#

@<TRIPOS>MOLECULE
MAR
    85    90     1
SMALL
NO_CHARGES


@<TRIPOS>ATOM
      1 C1           3.6755   5.8328   1.0691 C.3            1 <1>                0.0000
      2 O2           3.3528   4.5279   1.5542 O.3            1 <1>                0.0000
      3 C3           4.2699   3.9222   2.3484 C.ar           1 <1>                0.0000
      4 C4           5.4126   4.6097   2.7486 C.ar           1 <1>                0.0000
      5 C5           6.3483   3.9978   3.5570 C.ar           1 <1>                0.0000
      6 C6           6.1661   2.6913   3.9828 C.ar           1 <1>                0.0000
      7 C7           5.0333   1.9867   3.5945 C.ar           1 <1>                0.0000
      8 C8           4.8260   0.5906   4.0375 C.2            1 <1>                0.0000
      9 O9           5.4978   0.1240   4.9370 O.2            1 <1>                0.0000
     10 C10          3.7940  -0.2277   3.3747 C.ar           1 <1>                0.0000
     11 C11          3.7548  -1.6085   3.5500 C.ar           1 <1>                0.0000
     12 O12          4.6758  -2.2134   4.3405 O.co2          1 <1>                0.0000
     13 C13          2.7696  -2.3773   2.9155 C.ar           1 <1>                0.0000
     14 C14          2.7867  -3.8641   3.1626 C.3            1 <1>                0.0000
     15 C15          1.9667  -4.5948   2.1016 C.3            1 <1>                0.0000
     16 O16          1.8191  -5.9680   2.4684 O.3            1 <1>                0.0000
     17 C17          0.5869  -3.9314   2.0168 C.3            1 <1>                0.0000
     18 C18          0.7575  -2.5462   1.3973 C.3            1 <1>                0.0000
     19 O19         -0.4765  -1.8321   1.4936 O.3            1 <1>                0.0000
     20 C20         -1.3806  -2.0861   0.4165 C.3            1 <1>                0.0000
     21 C21         -2.7420  -1.4623   0.7348 C.3            1 <1>                0.0000
     22 C22         -3.6871  -1.6866  -0.4496 C.3            1 <1>                0.0000
     23 N23         -4.9722  -1.0261  -0.1847 N.4            1 <1>                0.0000
     24 H24         -4.8124  -0.0535   0.0310 H              1 <1>                0.0000
     25 H25         -5.5614  -1.0972  -1.0007 H              1 <1>                0.0000
     26 H26         -5.4256  -1.4740   0.5976 H              1 <1>                0.0000
     27 C27         -3.0559  -1.0917  -1.7121 C.3            1 <1>                0.0000
     28 O28         -2.9059   0.3203  -1.5512 O.3            1 <1>                0.0000
     29 C29         -3.8223   1.0944  -2.3278 C.3            1 <1>                0.0000
     30 C30         -3.7586   2.5580  -1.8834 C.3            1 <1>                0.0000
     31 C31         -4.6986   3.3911  -2.7602 C.3            1 <1>                0.0000
     32 O32         -4.5907   4.7699  -2.4010 O.3            1 <1>                0.0000
     33 C33         -4.3020   3.2116  -4.2288 C.3            1 <1>                0.0000
     34 O34         -2.9790   3.7127  -4.4308 O.3            1 <1>                0.0000
     35 C35         -4.3447   1.7227  -4.5826 C.3            1 <1>                0.0000
     36 C36         -3.8918   1.5293  -6.0311 C.3            1 <1>                0.0000
     37 O37         -3.4720   1.0020  -3.7101 O.3            1 <1>                0.0000
     38 C38         -1.6824  -1.7298  -1.9359 C.3            1 <1>                0.0000
     39 C39         -1.0196  -1.0976  -3.1614 C.3            1 <1>                0.0000
     40 O40         -0.8638  -1.5109  -0.7852 O.3            1 <1>                0.0000
     41 C41          1.8359  -1.7728   2.1120 C.ar           1 <1>                0.0000
     42 C42          1.8610  -0.3835   1.9272 C.ar           1 <1>                0.0000
     43 O43          0.9318   0.2073   1.1354 O.co2          1 <1>                0.0000
     44 C44          2.8324   0.3940   2.5511 C.ar           1 <1>                0.0000
     45 C45          2.8700   1.8561   2.3601 C.2            1 <1>                0.0000
     46 O46          1.9205   2.4373   1.8703 O.2            1 <1>                0.0000
     47 C47          4.0708   2.6070   2.7743 C.ar           1 <1>                0.0000
     48 C48          2.6606  -4.4974   0.7674 C.2            1 <1>                0.0000
     49 C49          2.4017  -5.5353  -0.2941 C.3            1 <1>                0.0000
     50 O50          3.4242  -3.5877   0.5489 O.2            1 <1>                0.0000
     51 H51          4.6306   5.7995   0.5448 H              1 <1>                0.0000
     52 H52          2.8968   6.1687   0.3844 H              1 <1>                0.0000
     53 H53          3.7454   6.5253   1.9079 H              1 <1>                0.0000
     54 H54          5.5676   5.6280   2.4239 H              1 <1>                0.0000
     55 H55          7.2307   4.5415   3.8606 H              1 <1>                0.0000
     56 H56          6.9044   2.2212   4.6155 H              1 <1>                0.0000
     57 H57          3.8158  -4.2219   3.1308 H              1 <1>                0.0000
     58 H58          2.3657  -4.0697   4.1467 H              1 <1>                0.0000
     59 H59          2.6563  -6.4437   2.5568 H              1 <1>                0.0000
     60 H60         -0.0728  -4.5342   1.3927 H              1 <1>                0.0000
     61 H61          0.1627  -3.8370   3.0165 H              1 <1>                0.0000
     62 H62          1.0293  -2.6535   0.3472 H              1 <1>                0.0000
     63 H63         -1.4956  -3.1620   0.2844 H              1 <1>                0.0000
     64 H64         -3.1579  -1.9311   1.6266 H              1 <1>                0.0000
     65 H65         -2.6212  -0.3928   0.9070 H              1 <1>                0.0000
     66 H66         -3.8485  -2.7554  -0.5900 H              1 <1>                0.0000
     67 H67         -3.6969  -1.2944  -2.5701 H              1 <1>                0.0000
     68 H68         -4.8334   0.7140  -2.1827 H              1 <1>                0.0000
     69 H69         -4.0680   2.6361  -0.8412 H              1 <1>                0.0000
     70 H70         -2.7385   2.9270  -1.9901 H              1 <1>                0.0000
     71 H71         -5.7255   3.0557  -2.6149 H              1 <1>                0.0000
     72 H72         -4.8209   4.9557  -1.4803 H              1 <1>                0.0000
     73 H73         -4.9993   3.7580  -4.8638 H              1 <1>                0.0000
     74 H74         -2.6999   3.7240  -5.3566 H              1 <1>                0.0000
     75 H75         -5.3627   1.3507  -4.4672 H              1 <1>                0.0000
     76 H76         -2.8404   1.8020  -6.1226 H              1 <1>                0.0000
     77 H77         -4.0225   0.4854  -6.3163 H              1 <1>                0.0000
     78 H78         -4.4898   2.1626  -6.6864 H              1 <1>                0.0000
     79 H79         -1.8015  -2.8009  -2.0990 H              1 <1>                0.0000
     80 H80         -0.8166  -0.0453  -2.9623 H              1 <1>                0.0000
     81 H81         -0.0838  -1.6140  -3.3752 H              1 <1>                0.0000
     82 H82         -1.6861  -1.1831  -4.0196 H              1 <1>                0.0000
     83 H83          1.5617  -5.2200  -0.9132 H              1 <1>                0.0000
     84 H84          3.2895  -5.6479  -0.9164 H              1 <1>                0.0000
     85 H85          2.1665  -6.4885   0.1794 H              1 <1>                0.0000
@<TRIPOS>BOND
    1    1    2 1     
    2    1   51 1     
    3    1   52 1     
    4    1   53 1     
    5    2    3 1     
    6    3   47 ar    
    7    3    4 ar    
    8    4    5 ar    
    9    4   54 1     
   10    5    6 ar    
   11    5   55 1     
   12    6    7 ar    
   13    6   56 1     
   14    7   47 ar    
   15    7    8 1     
   16    8    9 2     
   17    8   10 1     
   18   10   44 ar    
   19   10   11 ar    
   20   11   12 ar    
   21   11   13 ar    
   22   13   41 ar    
   23   13   14 1     
   24   14   15 1     
   25   14   57 1     
   26   14   58 1     
   27   15   16 1     
   28   15   17 1     
   29   15   48 1     
   30   16   59 1     
   31   17   18 1     
   32   17   60 1     
   33   17   61 1     
   34   18   19 1     
   35   18   41 1     
   36   18   62 1     
   37   19   20 1     
   38   20   40 1     
   39   20   21 1     
   40   20   63 1     
   41   21   22 1     
   42   21   64 1     
   43   21   65 1     
   44   22   23 1     
   45   22   27 1     
   46   22   66 1     
   47   23   24 1     
   48   23   25 1     
   49   23   26 1     
   50   27   28 1     
   51   27   38 1     
   52   27   67 1     
   53   28   29 1     
   54   29   37 1     
   55   29   30 1     
   56   29   68 1     
   57   30   31 1     
   58   30   69 1     
   59   30   70 1     
   60   31   32 1     
   61   31   33 1     
   62   31   71 1     
   63   32   72 1     
   64   33   34 1     
   65   33   35 1     
   66   33   73 1     
   67   34   74 1     
   68   35   36 1     
   69   35   37 1     
   70   35   75 1     
   71   36   76 1     
   72   36   77 1     
   73   36   78 1     
   74   38   39 1     
   75   38   40 1     
   76   38   79 1     
   77   39   80 1     
   78   39   81 1     
   79   39   82 1     
   80   41   42 ar    
   81   42   43 ar    
   82   42   44 ar    
   83   44   45 1     
   84   45   46 2     
   85   45   47 1     
   86   48   49 1     
   87   48   50 2     
   88   49   83 1     
   89   49   84 1     
   90   49   85 1     
@<TRIPOS>SUBSTRUCTURE
      1 ****           1
@<TRIPOS>SET
DONOR_HYDROGENS      STATIC     ATOMS    <user>   **** ""
6 59 24 25 26 72 74
ATOM$RED        STATIC     ATOMS    COLORGROUP SYSTEM
6 59 24 25 26 72 74
