#       Name:                MCT
#       Creating user name   gbret
#       Creation time:       Fri Sep  9 12:08:18 2016


#       File generated by GOLD software.
#

@<TRIPOS>MOLECULE
MCT
    17    17     1
SMALL
NO_CHARGES


@<TRIPOS>ATOM
      1 C1          -0.1411   2.5910  -0.1573 C.3            1 <1>                0.0000
      2 C2          -0.1206   1.0841  -0.1656 C.ar           1 <1>                0.0000
      3 C3          -0.1169   0.4010  -1.3675 C.ar           1 <1>                0.0000
      4 C4          -0.0978  -0.9812  -1.3805 C.ar           1 <1>                0.0000
      5 C5          -0.0822  -1.6851  -0.1870 C.ar           1 <1>                0.0000
      6 O6          -0.0629  -3.0448  -0.1979 O.3            1 <1>                0.0000
      7 C7          -0.0859  -0.9975   1.0228 C.ar           1 <1>                0.0000
      8 O8          -0.0702  -1.6838   2.1968 O.3            1 <1>                0.0000
      9 C9          -0.0998   0.3881   1.0286 C.ar           1 <1>                0.0000
     10 H10          0.8815   2.9683  -0.1650 H              1 <1>                0.0000
     11 H11         -0.6682   2.9521  -1.0404 H              1 <1>                0.0000
     12 H12         -0.6513   2.9425   0.7395 H              1 <1>                0.0000
     13 H13         -0.1294   0.9484  -2.2984 H              1 <1>                0.0000
     14 H14         -0.0953  -1.5125  -2.3208 H              1 <1>                0.0000
     15 H15          0.8260  -3.4255  -0.2052 H              1 <1>                0.0000
     16 H16          0.8176  -1.8697   2.5319 H              1 <1>                0.0000
     17 H17         -0.1027   0.9242   1.9662 H              1 <1>                0.0000
@<TRIPOS>BOND
    1    1    2 1     
    2    1   10 1     
    3    1   11 1     
    4    1   12 1     
    5    2    9 ar    
    6    2    3 ar    
    7    3    4 ar    
    8    3   13 1     
    9    4    5 ar    
   10    4   14 1     
   11    5    6 1     
   12    5    7 ar    
   13    6   15 1     
   14    7    8 1     
   15    7    9 ar    
   16    8   16 1     
   17    9   17 1     
@<TRIPOS>SUBSTRUCTURE
      1 ****           1
@<TRIPOS>SET
DONOR_HYDROGENS      STATIC     ATOMS    <user>   **** ""
2 15 16
ATOM$RED        STATIC     ATOMS    COLORGROUP SYSTEM
2 15 16
