#       Name:                MEY
#       Creating user name   gbret
#       Creation time:       Fri Sep  9 12:12:57 2016


#       File generated by GOLD software.
#

@<TRIPOS>MOLECULE
MEY
    52    56     1
SMALL
NO_CHARGES


@<TRIPOS>ATOM
      1 O1          -3.0860   7.8004   0.2685 O.3            1 <1>                0.0000
      2 C2          -3.1941   6.4556   0.0980 C.ar           1 <1>                0.0000
      3 C3          -3.1806   5.9159  -1.1795 C.ar           1 <1>                0.0000
      4 C4          -3.2902   4.5463  -1.3531 C.ar           1 <1>                0.0000
      5 O5          -3.2767   4.0156  -2.6050 O.3            1 <1>                0.0000
      6 C6          -3.4137   3.7131  -0.2438 C.ar           1 <1>                0.0000
      7 C7          -3.4267   4.2565   1.0319 C.ar           1 <1>                0.0000
      8 C8          -3.3118   5.6239   1.2028 C.ar           1 <1>                0.0000
      9 Cl9         -3.3283   6.3023   2.8007 Cl             1 <1>                0.0000
     10 N10         -3.5254   2.3239  -0.4171 N.am           1 <1>                0.0000
     11 C11         -2.4661   1.4195  -0.4599 C.ar           1 <1>                0.0000
     12 C12         -1.0903   1.5597  -0.3585 C.ar           1 <1>                0.0000
     13 C13         -0.2779   0.4460  -0.4415 C.ar           1 <1>                0.0000
     14 C14         -0.8313  -0.8097  -0.6253 C.ar           1 <1>                0.0000
     15 C15          0.0642  -2.0185  -0.7145 C.3            1 <1>                0.0000
     16 N16          0.2702  -2.5735   0.6256 N.pl3          1 <1>                0.0000
     17 S17          0.8807  -4.1026   0.8036 S.o2           1 <1>                0.0000
     18 O18          0.9947  -4.3288   2.2018 O.2            1 <1>                0.0000
     19 O19          0.1242  -4.9398  -0.0601 O.2            1 <1>                0.0000
     20 C20          2.5235  -4.0857   0.1668 C.ar           1 <1>                0.0000
     21 C21          2.8433  -4.8385  -0.9214 C.ar           1 <1>                0.0000
     22 C22          4.1367  -4.8376  -1.4394 C.ar           1 <1>                0.0000
     23 C23          5.1184  -4.0842  -0.8721 C.ar           1 <1>                0.0000
     24 C24          4.8262  -3.2941   0.2524 C.ar           1 <1>                0.0000
     25 C25          5.8131  -2.5029   0.8650 C.ar           1 <1>                0.0000
     26 C26          5.4933  -1.7500   1.9526 C.ar           1 <1>                0.0000
     27 C27          4.1994  -1.7510   2.4709 C.ar           1 <1>                0.0000
     28 C28          3.2182  -2.5049   1.9044 C.ar           1 <1>                0.0000
     29 C29          3.5089  -3.2907   0.7759 C.ar           1 <1>                0.0000
     30 C30         -2.2005  -0.9594  -0.7269 C.ar           1 <1>                0.0000
     31 C31         -3.0243   0.1529  -0.6454 C.ar           1 <1>                0.0000
     32 N32         -4.4047   0.3269  -0.7097 N.am           1 <1>                0.0000
     33 H33         -5.0604  -0.3771  -0.8335 H              1 <1>                0.0000
     34 C34         -4.6746   1.6380  -0.5645 C.2            1 <1>                0.0000
     35 O35         -5.7878   2.1294  -0.5730 O.2            1 <1>                0.0000
     36 H36         -2.1754   8.1140   0.3549 H              1 <1>                0.0000
     37 H37         -3.0852   6.5635  -2.0385 H              1 <1>                0.0000
     38 H38         -2.3937   3.7865  -2.9257 H              1 <1>                0.0000
     39 H39         -3.5224   3.6111   1.8926 H              1 <1>                0.0000
     40 H40         -0.6550   2.5377  -0.2154 H              1 <1>                0.0000
     41 H41          0.7937   0.5551  -0.3629 H              1 <1>                0.0000
     42 H42         -0.4023  -2.7701  -1.3513 H              1 <1>                0.0000
     43 H43          1.0252  -1.7282  -1.1392 H              1 <1>                0.0000
     44 H44          0.0490  -2.0454   1.4085 H              1 <1>                0.0000
     45 H45          2.0831  -5.4458  -1.3900 H              1 <1>                0.0000
     46 H46          4.3640  -5.4439  -2.3037 H              1 <1>                0.0000
     47 H47          6.1167  -4.0939  -1.2841 H              1 <1>                0.0000
     48 H48          6.8201  -2.4926   0.4748 H              1 <1>                0.0000
     49 H49          6.2535  -1.1429   2.4214 H              1 <1>                0.0000
     50 H50          3.9722  -1.1447   3.3352 H              1 <1>                0.0000
     51 H51          2.2202  -2.4960   2.3171 H              1 <1>                0.0000
     52 H52         -2.6285  -1.9405  -0.8703 H              1 <1>                0.0000
@<TRIPOS>BOND
    1    1    2 1     
    2    1   36 1     
    3    2    8 ar    
    4    2    3 ar    
    5    3    4 ar    
    6    3   37 1     
    7    4    5 1     
    8    4    6 ar    
    9    5   38 1     
   10    6    7 ar    
   11    6   10 1     
   12    7    8 ar    
   13    7   39 1     
   14    8    9 1     
   15   10   34 am    
   16   10   11 1     
   17   11   31 ar    
   18   11   12 ar    
   19   12   13 ar    
   20   12   40 1     
   21   13   14 ar    
   22   13   41 1     
   23   14   15 1     
   24   14   30 ar    
   25   15   16 1     
   26   15   42 1     
   27   15   43 1     
   28   16   17 1     
   29   16   44 1     
   30   17   18 2     
   31   17   19 2     
   32   17   20 1     
   33   20   29 ar    
   34   20   21 ar    
   35   21   22 ar    
   36   21   45 1     
   37   22   23 ar    
   38   22   46 1     
   39   23   24 ar    
   40   23   47 1     
   41   24   29 ar    
   42   24   25 ar    
   43   25   26 ar    
   44   25   48 1     
   45   26   27 ar    
   46   26   49 1     
   47   27   28 ar    
   48   27   50 1     
   49   28   29 ar    
   50   28   51 1     
   51   30   31 ar    
   52   30   52 1     
   53   31   32 1     
   54   32   33 1     
   55   32   34 am    
   56   34   35 2     
@<TRIPOS>SUBSTRUCTURE
      1 ****           1
@<TRIPOS>SET
DONOR_HYDROGENS      STATIC     ATOMS    <user>   **** ""
4 36 38 44 33
ATOM$RED        STATIC     ATOMS    COLORGROUP SYSTEM
4 36 38 44 33
