#       Name:                MFW
#       Creating user name   gbret
#       Creation time:       Fri Sep  9 12:14:27 2016


#       File generated by GOLD software.
#

@<TRIPOS>MOLECULE
MFW
    14    14     1
SMALL
NO_CHARGES


@<TRIPOS>ATOM
      1 O1           0.0333  -2.5709  -0.1464 O.2            1 <1>                0.0000
      2 C2           0.0169  -1.3634  -0.1397 C.2            1 <1>                0.0000
      3 C3          -1.2182  -0.4804  -0.1165 C.3            1 <1>                0.0000
      4 C4          -0.7250   0.8573   0.4888 C.3            1 <1>                0.0000
      5 C5           0.6902   0.9977  -0.1272 C.3            1 <1>                0.0000
      6 C6           1.2245  -0.4494  -0.1464 C.3            1 <1>                0.0000
      7 H7          -1.5941  -0.3249  -1.1278 H              1 <1>                0.0000
      8 H8          -1.9900  -0.9219   0.5138 H              1 <1>                0.0000
      9 H9          -1.3662   1.6826   0.1793 H              1 <1>                0.0000
     10 H10         -0.6702   0.7941   1.5756 H              1 <1>                0.0000
     11 H11          0.6295   1.4013  -1.1380 H              1 <1>                0.0000
     12 H12          1.3203   1.6277   0.5005 H              1 <1>                0.0000
     13 H13          1.8405  -0.6308   0.7344 H              1 <1>                0.0000
     14 H14          1.8083  -0.6190  -1.0510 H              1 <1>                0.0000
@<TRIPOS>BOND
    1    1    2 2     
    2    2    6 1     
    3    2    3 1     
    4    3    4 1     
    5    3    7 1     
    6    3    8 1     
    7    4    5 1     
    8    4    9 1     
    9    4   10 1     
   10    5    6 1     
   11    5   11 1     
   12    5   12 1     
   13    6   13 1     
   14    6   14 1     
@<TRIPOS>SUBSTRUCTURE
      1 ****           1
