#       Name:                MG8
#       Creating user name   gbret
#       Creation time:       Fri Sep  9 12:15:03 2016


#       File generated by GOLD software.
#

@<TRIPOS>MOLECULE
MG8
    53    52     1
SMALL
NO_CHARGES


@<TRIPOS>ATOM
      1 C1          -1.1033   7.8661   4.0018 C.3            1 <1>                0.0000
      2 C2          -1.0825   6.3362   3.9934 C.3            1 <1>                0.0000
      3 C3          -0.3664   5.8428   2.7346 C.3            1 <1>                0.0000
      4 C4          -0.3456   4.3130   2.7262 C.3            1 <1>                0.0000
      5 C5           0.3705   3.8196   1.4674 C.3            1 <1>                0.0000
      6 C6           0.3912   2.2897   1.4590 C.3            1 <1>                0.0000
      7 C7           1.1074   1.7963   0.2002 C.3            1 <1>                0.0000
      8 C8           1.1278   0.2895   0.1919 C.2            1 <1>                0.0000
      9 O9           0.6196  -0.3289   1.1031 O.2            1 <1>                0.0000
     10 N10          1.7108  -0.3710  -0.8281 N.am           1 <1>                0.0000
     11 C11          2.3247   0.3760  -1.9288 C.3            1 <1>                0.0000
     12 C12          1.7307  -1.8358  -0.8362 C.3            1 <1>                0.0000
     13 C13          0.4817  -2.3589  -1.5483 C.3            1 <1>                0.0000
     14 O14          0.5206  -1.9727  -2.9236 O.3            1 <1>                0.0000
     15 C15          0.4389  -3.8850  -1.4482 C.3            1 <1>                0.0000
     16 O16          0.4000  -4.2712  -0.0729 O.3            1 <1>                0.0000
     17 C17         -0.8101  -4.4081  -2.1603 C.3            1 <1>                0.0000
     18 O18         -0.7712  -4.0219  -3.5356 O.3            1 <1>                0.0000
     19 C19         -0.8528  -5.9342  -2.0601 C.3            1 <1>                0.0000
     20 O20         -0.8918  -6.3204  -0.6849 O.3            1 <1>                0.0000
     21 C21         -2.1019  -6.4573  -2.7723 C.3            1 <1>                0.0000
     22 O22         -2.0825  -7.8861  -2.7802 O.3            1 <1>                0.0000
     23 H23         -0.0807   8.2434   3.9941 H              1 <1>                0.0000
     24 H24         -1.6305   8.2271   3.1188 H              1 <1>                0.0000
     25 H25         -1.6135   8.2176   4.8986 H              1 <1>                0.0000
     26 H26         -0.5553   5.9752   4.8765 H              1 <1>                0.0000
     27 H27         -2.1051   5.9589   4.0012 H              1 <1>                0.0000
     28 H28         -0.8936   6.2039   1.8516 H              1 <1>                0.0000
     29 H29          0.6562   6.2201   2.7269 H              1 <1>                0.0000
     30 H30          0.1815   3.9519   3.6093 H              1 <1>                0.0000
     31 H31         -1.3682   3.9357   2.7339 H              1 <1>                0.0000
     32 H32         -0.1567   4.1806   0.5843 H              1 <1>                0.0000
     33 H33          1.3931   4.1968   1.4597 H              1 <1>                0.0000
     34 H34          0.9184   1.9286   2.3420 H              1 <1>                0.0000
     35 H35         -0.6313   1.9124   1.4667 H              1 <1>                0.0000
     36 H36          0.5802   2.1574  -0.6829 H              1 <1>                0.0000
     37 H37          2.1300   2.1736   0.1924 H              1 <1>                0.0000
     38 H38          3.3717   0.5706  -1.6964 H              1 <1>                0.0000
     39 H39          2.2588  -0.2090  -2.8461 H              1 <1>                0.0000
     40 H40          1.8003   1.3221  -2.0627 H              1 <1>                0.0000
     41 H41          2.6206  -2.1842  -1.3604 H              1 <1>                0.0000
     42 H42          1.7454  -2.2046   0.1894 H              1 <1>                0.0000
     43 H43         -0.4075  -1.9389  -1.0780 H              1 <1>                0.0000
     44 H44          1.2871  -2.3119  -3.4058 H              1 <1>                0.0000
     45 H45          1.3280  -4.3050  -1.9184 H              1 <1>                0.0000
     46 H46         -0.3665  -3.9320   0.4093 H              1 <1>                0.0000
     47 H47         -1.6992  -3.9881  -1.6900 H              1 <1>                0.0000
     48 H48         -0.0047  -4.3611  -4.0178 H              1 <1>                0.0000
     49 H49          0.0363  -6.3542  -2.5304 H              1 <1>                0.0000
     50 H50         -1.6583  -5.9812  -0.2027 H              1 <1>                0.0000
     51 H51         -2.9918  -6.1089  -2.2481 H              1 <1>                0.0000
     52 H52         -2.1166  -6.0885  -3.7979 H              1 <1>                0.0000
     53 H53         -2.8463  -8.2874  -3.2168 H              1 <1>                0.0000
@<TRIPOS>BOND
    1    1    2 1     
    2    1   23 1     
    3    1   24 1     
    4    1   25 1     
    5    2    3 1     
    6    2   26 1     
    7    2   27 1     
    8    3    4 1     
    9    3   28 1     
   10    3   29 1     
   11    4    5 1     
   12    4   30 1     
   13    4   31 1     
   14    5    6 1     
   15    5   32 1     
   16    5   33 1     
   17    6    7 1     
   18    6   34 1     
   19    6   35 1     
   20    7    8 1     
   21    7   36 1     
   22    7   37 1     
   23    8    9 2     
   24    8   10 am    
   25   10   11 1     
   26   10   12 1     
   27   11   38 1     
   28   11   39 1     
   29   11   40 1     
   30   12   13 1     
   31   12   41 1     
   32   12   42 1     
   33   13   14 1     
   34   13   15 1     
   35   13   43 1     
   36   14   44 1     
   37   15   16 1     
   38   15   17 1     
   39   15   45 1     
   40   16   46 1     
   41   17   18 1     
   42   17   19 1     
   43   17   47 1     
   44   18   48 1     
   45   19   20 1     
   46   19   21 1     
   47   19   49 1     
   48   20   50 1     
   49   21   22 1     
   50   21   51 1     
   51   21   52 1     
   52   22   53 1     
@<TRIPOS>SUBSTRUCTURE
      1 ****           1
@<TRIPOS>SET
DONOR_HYDROGENS      STATIC     ATOMS    <user>   **** ""
5 44 46 48 50 53
ATOM$RED        STATIC     ATOMS    COLORGROUP SYSTEM
5 44 46 48 50 53
