#       Name:                MGB
#       Creating user name   gbret
#       Creation time:       Fri Sep  9 12:15:16 2016


#       File generated by GOLD software.
#

@<TRIPOS>MOLECULE
MGB
    27    26     1
SMALL
NO_CHARGES


@<TRIPOS>ATOM
      1 C1          -0.0386   3.0246   0.2723 C.3            1 <1>                0.0000
      2 C2          -0.0181   1.5177   0.2640 C.2            1 <1>                0.0000
      3 C3           0.0039   0.7797   1.5266 C.2            1 <1>                0.0000
      4 N4           0.0215  -0.5214   1.5195 N.2            1 <1>                0.0000
      5 N5           0.0426  -1.2284   2.7288 N.pl3          1 <1>                0.0000
      6 C6           0.0612  -2.5985   2.7213 C.cat          1 <1>                0.0000
      7 N7           0.0592  -3.2584   1.5638 N.pl3          1 <1>                0.0000
      8 N8           0.0812  -3.2708   3.8714 N.pl3          1 <1>                0.0000
      9 H9           0.0827  -2.7904   4.7141 H              1 <1>                0.0000
     10 H10          0.0944  -4.2407   3.8661 H              1 <1>                0.0000
     11 N11         -0.0201   0.8732  -0.8664 N.2            1 <1>                0.0000
     12 N12         -0.0411   1.5802  -2.0758 N.pl3          1 <1>                0.0000
     13 C13         -0.0432   0.9015  -3.2662 C.cat          1 <1>                0.0000
     14 N14         -0.0251  -0.4308  -3.2735 N.pl3          1 <1>                0.0000
     15 N15         -0.0632   1.5738  -4.4163 N.pl3          1 <1>                0.0000
     16 H16         -0.0764   2.5437  -4.4110 H              1 <1>                0.0000
     17 H17         -0.0647   1.0934  -5.2590 H              1 <1>                0.0000
     18 H18          0.9840   3.4019   0.2646 H              1 <1>                0.0000
     19 H19         -0.5657   3.3857  -0.6108 H              1 <1>                0.0000
     20 H20         -0.5488   3.3761   1.1691 H              1 <1>                0.0000
     21 H21          0.0055   1.3146   2.4648 H              1 <1>                0.0000
     22 H22          0.0441  -0.7479   3.5715 H              1 <1>                0.0000
     23 H23          0.0446  -2.7690   0.7265 H              1 <1>                0.0000
     24 H24          0.0724  -4.2283   1.5585 H              1 <1>                0.0000
     25 H25         -0.0543   2.5501  -2.0705 H              1 <1>                0.0000
     26 H26         -0.0105  -0.9202  -2.4362 H              1 <1>                0.0000
     27 H27         -0.0266  -0.9112  -4.1162 H              1 <1>                0.0000
@<TRIPOS>BOND
    1    1    2 1     
    2    1   18 1     
    3    1   19 1     
    4    1   20 1     
    5    2    3 1     
    6    2   11 2     
    7    3    4 2     
    8    3   21 1     
    9    4    5 1     
   10    5    6 ar    
   11    5   22 1     
   12    6    7 ar    
   13    6    8 ar    
   14    7   23 1     
   15    7   24 1     
   16    8    9 1     
   17    8   10 1     
   18   11   12 1     
   19   12   13 ar    
   20   12   25 1     
   21   13   14 ar    
   22   13   15 ar    
   23   14   26 1     
   24   14   27 1     
   25   15   16 1     
   26   15   17 1     
@<TRIPOS>SUBSTRUCTURE
      1 ****           1
@<TRIPOS>SET
DONOR_HYDROGENS      STATIC     ATOMS    <user>   **** ""
10 22 23 24 9 10 25 26 27 16 17
ATOM$RED        STATIC     ATOMS    COLORGROUP SYSTEM
10 22 23 24 9 10 25 26 27 16 17
