#       Name:                MGU
#       Creating user name   gbret
#       Creation time:       Fri Sep  9 12:16:35 2016


#       File generated by GOLD software.
#

@<TRIPOS>MOLECULE
MGU
    77    78     1
SMALL
NO_CHARGES


@<TRIPOS>ATOM
      1 C1          -1.9349   4.6038  -2.9327 C.3            1 <1>                0.0000
      2 O2          -1.7933   3.3057  -2.3523 O.3            1 <1>                0.0000
      3 C3          -1.2216   2.3351  -3.2316 C.3            1 <1>                0.0000
      4 O4           0.1584   2.6392  -3.4445 O.3            1 <1>                0.0000
      5 C5           0.8234   1.7402  -4.3344 C.3            1 <1>                0.0000
      6 C6           2.2791   2.1779  -4.5081 C.3            1 <1>                0.0000
      7 C7           0.7818   0.3247  -3.7527 C.3            1 <1>                0.0000
      8 N8           1.5017   0.2982  -2.4771 N.am           1 <1>                0.0000
      9 C9           2.4313  -0.6503  -2.2474 C.2            1 <1>                0.0000
     10 O10          2.7111  -1.4482  -3.1169 O.2            1 <1>                0.0000
     11 C11          3.1229  -0.7194  -0.9103 C.3            1 <1>                0.0000
     12 O12          3.9654  -1.8729  -0.8689 O.3            1 <1>                0.0000
     13 C13          3.9702   0.5385  -0.7088 C.3            1 <1>                0.0000
     14 C14          4.5599   0.5355   0.7030 C.3            1 <1>                0.0000
     15 O15          5.3512   1.7104   0.8912 O.3            1 <1>                0.0000
     16 C16         -0.6772  -0.0829  -3.5256 C.3            1 <1>                0.0000
     17 O17         -0.7233  -1.3739  -2.9147 O.3            1 <1>                0.0000
     18 C18         -1.3453   0.9435  -2.6056 C.3            1 <1>                0.0000
     19 O19         -0.6994   0.9341  -1.3310 O.3            1 <1>                0.0000
     20 C20         -1.5907   1.1009  -0.2265 C.3            1 <1>                0.0000
     21 O21         -2.3962  -0.0708  -0.0829 O.3            1 <1>                0.0000
     22 C22         -3.3456   0.0009   0.9827 C.3            1 <1>                0.0000
     23 C23         -4.1659  -1.2900   1.0229 C.3            1 <1>                0.0000
     24 C24         -2.6066   0.1777   2.3117 C.3            1 <1>                0.0000
     25 N25         -1.7536  -0.9879   2.5565 N.am           1 <1>                0.0000
     26 C26         -1.4660  -1.3591   3.8198 C.2            1 <1>                0.0000
     27 O27         -1.9133  -0.7282   4.7540 O.2            1 <1>                0.0000
     28 C28         -0.5885  -2.5582   4.0715 C.3            1 <1>                0.0000
     29 O29         -0.3368  -2.6783   5.4730 O.3            1 <1>                0.0000
     30 C30         -1.2932  -3.8202   3.5699 C.3            1 <1>                0.0000
     31 C31         -0.3535  -5.0193   3.7110 C.3            1 <1>                0.0000
     32 O32         -1.0117  -6.1980   3.2426 O.3            1 <1>                0.0000
     33 C33         -1.7412   1.4397   2.2417 C.3            1 <1>                0.0000
     34 O34         -0.9915   1.5728   3.4510 O.3            1 <1>                0.0000
     35 C35         -0.7812   1.3219   1.0539 C.3            1 <1>                0.0000
     36 O36          0.0992   0.2153   1.2594 O.3            1 <1>                0.0000
     37 C37          1.4526   0.5904   1.5230 C.3            1 <1>                0.0000
     38 H38         -0.9552   4.9774  -3.2309 H              1 <1>                0.0000
     39 H39         -2.5818   4.5420  -3.8078 H              1 <1>                0.0000
     40 H40         -2.3756   5.2823  -2.2023 H              1 <1>                0.0000
     41 H41         -1.7492   2.3530  -4.1852 H              1 <1>                0.0000
     42 H42          0.3228   1.7504  -5.3025 H              1 <1>                0.0000
     43 H43          2.7797   2.1672  -3.5399 H              1 <1>                0.0000
     44 H44          2.7862   1.4921  -5.1868 H              1 <1>                0.0000
     45 H45          2.3086   3.1861  -4.9212 H              1 <1>                0.0000
     46 H46          1.2506  -0.3696  -4.4500 H              1 <1>                0.0000
     47 H47          1.3094   0.9634  -1.7977 H              1 <1>                0.0000
     48 H48          2.3769  -0.7857  -0.1184 H              1 <1>                0.0000
     49 H49          4.6544  -1.8812  -1.5473 H              1 <1>                0.0000
     50 H50          4.7784   0.5533  -1.4400 H              1 <1>                0.0000
     51 H51          3.3456   1.4222  -0.8398 H              1 <1>                0.0000
     52 H52          3.7517   0.5208   1.4343 H              1 <1>                0.0000
     53 H53          5.1845  -0.3481   0.8340 H              1 <1>                0.0000
     54 H54          5.7572   1.7751   1.7665 H              1 <1>                0.0000
     55 H55         -1.2004  -0.1129  -4.4814 H              1 <1>                0.0000
     56 H56         -1.6187  -1.6954  -2.7417 H              1 <1>                0.0000
     57 H57         -2.3987   0.6916  -2.4831 H              1 <1>                0.0000
     58 H58         -2.2325   1.9638  -0.4044 H              1 <1>                0.0000
     59 H59         -4.0106   0.8492   0.8206 H              1 <1>                0.0000
     60 H60         -3.5008  -2.1382   1.1853 H              1 <1>                0.0000
     61 H61         -4.8900  -1.2352   1.8357 H              1 <1>                0.0000
     62 H62         -4.6912  -1.4164   0.0762 H              1 <1>                0.0000
     63 H63         -3.3304   0.2757   3.1207 H              1 <1>                0.0000
     64 H64         -1.3958  -1.4925   1.8093 H              1 <1>                0.0000
     65 H65          0.3561  -2.4347   3.5420 H              1 <1>                0.0000
     66 H66         -1.1346  -2.7912   6.0077 H              1 <1>                0.0000
     67 H67         -2.1934  -3.9926   4.1600 H              1 <1>                0.0000
     68 H68         -1.5647  -3.6926   2.5220 H              1 <1>                0.0000
     69 H69          0.5466  -4.8469   3.1210 H              1 <1>                0.0000
     70 H70         -0.0821  -5.1469   4.7590 H              1 <1>                0.0000
     71 H71         -0.4735  -6.9992   3.3024 H              1 <1>                0.0000
     72 H72         -2.3800   2.3131   2.1108 H              1 <1>                0.0000
     73 H73         -0.4200   2.3526   3.4756 H              1 <1>                0.0000
     74 H74         -0.1996   2.2393   0.9633 H              1 <1>                0.0000
     75 H75          1.4901   1.2094   2.4194 H              1 <1>                0.0000
     76 H76          2.0550  -0.3053   1.6746 H              1 <1>                0.0000
     77 H77          1.8452   1.1532   0.6761 H              1 <1>                0.0000
@<TRIPOS>BOND
    1    1    2 1     
    2    1   38 1     
    3    1   39 1     
    4    1   40 1     
    5    2    3 1     
    6    3   18 1     
    7    3    4 1     
    8    3   41 1     
    9    4    5 1     
   10    5    6 1     
   11    5    7 1     
   12    5   42 1     
   13    6   43 1     
   14    6   44 1     
   15    6   45 1     
   16    7    8 1     
   17    7   16 1     
   18    7   46 1     
   19    8    9 am    
   20    8   47 1     
   21    9   10 2     
   22    9   11 1     
   23   11   12 1     
   24   11   13 1     
   25   11   48 1     
   26   12   49 1     
   27   13   14 1     
   28   13   50 1     
   29   13   51 1     
   30   14   15 1     
   31   14   52 1     
   32   14   53 1     
   33   15   54 1     
   34   16   17 1     
   35   16   18 1     
   36   16   55 1     
   37   17   56 1     
   38   18   19 1     
   39   18   57 1     
   40   19   20 1     
   41   20   35 1     
   42   20   21 1     
   43   20   58 1     
   44   21   22 1     
   45   22   23 1     
   46   22   24 1     
   47   22   59 1     
   48   23   60 1     
   49   23   61 1     
   50   23   62 1     
   51   24   25 1     
   52   24   33 1     
   53   24   63 1     
   54   25   26 am    
   55   25   64 1     
   56   26   27 2     
   57   26   28 1     
   58   28   29 1     
   59   28   30 1     
   60   28   65 1     
   61   29   66 1     
   62   30   31 1     
   63   30   67 1     
   64   30   68 1     
   65   31   32 1     
   66   31   69 1     
   67   31   70 1     
   68   32   71 1     
   69   33   34 1     
   70   33   35 1     
   71   33   72 1     
   72   34   73 1     
   73   35   36 1     
   74   35   74 1     
   75   36   37 1     
   76   37   75 1     
   77   37   76 1     
   78   37   77 1     
@<TRIPOS>SUBSTRUCTURE
      1 ****           1
@<TRIPOS>SET
DONOR_HYDROGENS      STATIC     ATOMS    <user>   **** ""
8 47 49 54 56 64 66 71 73
ATOM$RED        STATIC     ATOMS    COLORGROUP SYSTEM
8 47 49 54 56 64 66 71 73
