#       Name:                MH9
#       Creating user name   gbret
#       Creation time:       Fri Sep  9 12:17:21 2016


#       File generated by GOLD software.
#

@<TRIPOS>MOLECULE
MH9
    33    32     1
SMALL
NO_CHARGES


@<TRIPOS>ATOM
      1 C1           2.8287   5.3973  -0.4021 C.3            1 <1>                0.0000
      2 C2           2.8495   3.8674  -0.4105 C.3            1 <1>                0.0000
      3 C3           1.4141   3.3379  -0.3996 C.3            1 <1>                0.0000
      4 C4           1.4348   1.8080  -0.4080 C.3            1 <1>                0.0000
      5 C5          -0.0005   1.2784  -0.3972 C.3            1 <1>                0.0000
      6 C6           0.0202  -0.2514  -0.4056 C.3            1 <1>                0.0000
      7 C7          -1.4152  -0.7810  -0.3947 C.3            1 <1>                0.0000
      8 C8          -1.3947  -2.2878  -0.4030 C.2            1 <1>                0.0000
      9 C9          -2.0398  -2.9695   0.5467 C.2            1 <1>                0.0000
     10 C10         -2.0200  -4.4313   0.5387 C.2            1 <1>                0.0000
     11 C11         -2.6747  -5.1232   1.5027 C.2            1 <1>                0.0000
     12 C12         -2.6555  -6.5366   1.4949 C.2            1 <1>                0.0000
     13 O13         -2.0470  -7.1362   0.6166 O.co2          1 <1>                0.0000
     14 O14         -3.2474  -7.1622   2.3665 O.co2          1 <1>                0.0000
     15 H15          3.8513   5.7746  -0.4098 H              1 <1>                0.0000
     16 H16          2.3015   5.7583  -1.2851 H              1 <1>                0.0000
     17 H17          2.3185   5.7488   0.4947 H              1 <1>                0.0000
     18 H18          3.3597   3.5159  -1.3073 H              1 <1>                0.0000
     19 H19          3.3767   3.5064   0.4726 H              1 <1>                0.0000
     20 H20          0.9039   3.6894   0.4972 H              1 <1>                0.0000
     21 H21          0.8869   3.6989  -1.2827 H              1 <1>                0.0000
     22 H22          1.9450   1.4565  -1.3048 H              1 <1>                0.0000
     23 H23          1.9620   1.4469   0.4750 H              1 <1>                0.0000
     24 H24         -0.5107   1.6300   0.4996 H              1 <1>                0.0000
     25 H25         -0.5277   1.6395  -1.2802 H              1 <1>                0.0000
     26 H26          0.5304  -0.6029  -1.3024 H              1 <1>                0.0000
     27 H27          0.5474  -0.6125   0.4775 H              1 <1>                0.0000
     28 H28         -1.9254  -0.4295   0.5021 H              1 <1>                0.0000
     29 H29         -1.9424  -0.4199  -1.2778 H              1 <1>                0.0000
     30 H30         -0.8583  -2.8163  -1.1772 H              1 <1>                0.0000
     31 H31         -2.5762  -2.4409   1.3209 H              1 <1>                0.0000
     32 H32         -1.4836  -4.9598  -0.2355 H              1 <1>                0.0000
     33 H33         -3.2111  -4.5946   2.2768 H              1 <1>                0.0000
@<TRIPOS>BOND
    1    1    2 1     
    2    1   15 1     
    3    1   16 1     
    4    1   17 1     
    5    2    3 1     
    6    2   18 1     
    7    2   19 1     
    8    3    4 1     
    9    3   20 1     
   10    3   21 1     
   11    4    5 1     
   12    4   22 1     
   13    4   23 1     
   14    5    6 1     
   15    5   24 1     
   16    5   25 1     
   17    6    7 1     
   18    6   26 1     
   19    6   27 1     
   20    7    8 1     
   21    7   28 1     
   22    7   29 1     
   23    8    9 2     
   24    8   30 1     
   25    9   10 1     
   26    9   31 1     
   27   10   11 2     
   28   10   32 1     
   29   11   12 1     
   30   11   33 1     
   31   12   13 ar    
   32   12   14 ar    
@<TRIPOS>SUBSTRUCTURE
      1 ****           1
