#       Name:                MHF
#       Creating user name   gbret
#       Creation time:       Fri Sep  9 12:17:44 2016


#       File generated by GOLD software.
#

@<TRIPOS>MOLECULE
MHF
    54    57     1
SMALL
NO_CHARGES


@<TRIPOS>ATOM
      1 N1           6.4788  -0.8452  -5.5053 N.pl3          1 <1>                0.0000
      2 C2           5.4351  -0.2954  -4.8058 C.2            1 <1>                0.0000
      3 N3           5.6042   0.0236  -3.5407 N.2            1 <1>                0.0000
      4 C4           4.6071   0.5695  -2.8274 C.2            1 <1>                0.0000
      5 O5           4.7795   0.8563  -1.6507 O.2            1 <1>                0.0000
      6 C6           3.3604   0.8117  -3.4392 C.2            1 <1>                0.0000
      7 N7           2.3148   1.4211  -2.7664 N.3            1 <1>                0.0000
      8 C8           2.2128   1.3371  -1.3100 C.3            1 <1>                0.0000
      9 N9           0.8190   1.7812  -1.0219 N.3            1 <1>                0.0000
     10 C10          0.0249   1.5289  -2.2550 C.3            1 <1>                0.0000
     11 C11          1.0093   0.8652  -3.2203 C.3            1 <1>                0.0000
     12 C12          0.8542   1.2775  -4.6800 C.3            1 <1>                0.0000
     13 N13          1.9751   0.6297  -5.3962 N.pl3          1 <1>                0.0000
     14 C14          3.1877   0.4536  -4.7536 C.2            1 <1>                0.0000
     15 N15          4.2483  -0.0860  -5.4354 N.pl3          1 <1>                0.0000
     16 H16          4.1500  -0.3231  -6.3708 H              1 <1>                0.0000
     17 C17          0.2896   1.0896   0.0620 C.ar           1 <1>                0.0000
     18 C18          1.1404   0.5261   1.0090 C.ar           1 <1>                0.0000
     19 C19          0.6195  -0.1590   2.0828 C.ar           1 <1>                0.0000
     20 C20         -0.7654  -0.2888   2.2221 C.ar           1 <1>                0.0000
     21 C21         -1.6170   0.2782   1.2695 C.ar           1 <1>                0.0000
     22 C22         -1.0901   0.9669   0.2009 C.ar           1 <1>                0.0000
     23 C23         -1.3270  -1.0230   3.3718 C.2            1 <1>                0.0000
     24 O24         -0.5851  -1.5160   4.1995 O.2            1 <1>                0.0000
     25 N25         -2.6624  -1.1473   3.5048 N.am           1 <1>                0.0000
     26 C26         -3.2202  -1.8764   4.6465 C.3            1 <1>                0.0000
     27 C27         -4.6388  -1.3767   4.9270 C.3            1 <1>                0.0000
     28 C28         -4.5858   0.0873   5.3684 C.3            1 <1>                0.0000
     29 C29         -5.9831   0.5796   5.6448 C.2            1 <1>                0.0000
     30 O30         -6.9332  -0.1710   5.5019 O.co2          1 <1>                0.0000
     31 O31         -6.1634   1.7283   6.0112 O.co2          1 <1>                0.0000
     32 C32         -3.2597  -3.3495   4.3310 C.2            1 <1>                0.0000
     33 O33         -3.1515  -4.1681   5.2280 O.co2          1 <1>                0.0000
     34 O34         -3.3998  -3.7226   3.1788 O.co2          1 <1>                0.0000
     35 H35          6.3660  -1.0804  -6.4396 H              1 <1>                0.0000
     36 H36          7.3309  -0.9952  -5.0668 H              1 <1>                0.0000
     37 H37          2.3642   0.3111  -0.9746 H              1 <1>                0.0000
     38 H38          2.9325   2.0052  -0.8370 H              1 <1>                0.0000
     39 H39         -0.8074   0.8585  -2.0404 H              1 <1>                0.0000
     40 H40         -0.3402   2.4681  -2.6707 H              1 <1>                0.0000
     41 H41          0.9876  -0.2192  -3.1117 H              1 <1>                0.0000
     42 H42         -0.0989   0.9231  -5.0725 H              1 <1>                0.0000
     43 H43          0.9226   2.3613  -4.7747 H              1 <1>                0.0000
     44 H44          1.8605   0.3300  -6.3116 H              1 <1>                0.0000
     45 H45          2.2102   0.6264   0.9007 H              1 <1>                0.0000
     46 H46          1.2800  -0.5962   2.8170 H              1 <1>                0.0000
     47 H47         -2.6873   0.1793   1.3741 H              1 <1>                0.0000
     48 H48         -1.7475   1.4055  -0.5352 H              1 <1>                0.0000
     49 H49         -3.2542  -0.7540   2.8445 H              1 <1>                0.0000
     50 H50         -2.5959  -1.7094   5.5243 H              1 <1>                0.0000
     51 H51         -5.2396  -1.4616   4.0216 H              1 <1>                0.0000
     52 H52         -5.0863  -1.9786   5.7179 H              1 <1>                0.0000
     53 H53         -3.9850   0.1723   6.2739 H              1 <1>                0.0000
     54 H54         -4.1383   0.6893   4.5776 H              1 <1>                0.0000
@<TRIPOS>BOND
    1    1    2 1     
    2    1   35 1     
    3    1   36 1     
    4    2   15 1     
    5    2    3 2     
    6    3    4 1     
    7    4    5 2     
    8    4    6 1     
    9    6   14 2     
   10    6    7 1     
   11    7   11 1     
   12    7    8 1     
   13    8    9 1     
   14    8   37 1     
   15    8   38 1     
   16    9   10 1     
   17    9   17 1     
   18   10   11 1     
   19   10   39 1     
   20   10   40 1     
   21   11   12 1     
   22   11   41 1     
   23   12   13 1     
   24   12   42 1     
   25   12   43 1     
   26   13   14 1     
   27   13   44 1     
   28   14   15 1     
   29   15   16 1     
   30   17   22 ar    
   31   17   18 ar    
   32   18   19 ar    
   33   18   45 1     
   34   19   20 ar    
   35   19   46 1     
   36   20   21 ar    
   37   20   23 1     
   38   21   22 ar    
   39   21   47 1     
   40   22   48 1     
   41   23   24 2     
   42   23   25 am    
   43   25   26 1     
   44   25   49 1     
   45   26   27 1     
   46   26   32 1     
   47   26   50 1     
   48   27   28 1     
   49   27   51 1     
   50   27   52 1     
   51   28   29 1     
   52   28   53 1     
   53   28   54 1     
   54   29   30 ar    
   55   29   31 ar    
   56   32   33 ar    
   57   32   34 ar    
@<TRIPOS>SUBSTRUCTURE
      1 ****           1
@<TRIPOS>SET
DONOR_HYDROGENS      STATIC     ATOMS    <user>   **** ""
5 35 36 44 16 49
ATOM$RED        STATIC     ATOMS    COLORGROUP SYSTEM
5 35 36 44 16 49
