#       Name:                MIS
#       Creating user name   gbret
#       Creation time:       Fri Sep  9 12:20:07 2016


#       File generated by GOLD software.
#

@<TRIPOS>MOLECULE
MIS
    27    26     1
SMALL
NO_CHARGES


@<TRIPOS>ATOM
      1 C1           2.7298   2.9235   0.6106 C.3            1 <1>                0.0000
      2 C2           2.7506   1.3936   0.6022 C.3            1 <1>                0.0000
      3 C3           3.4906   0.8868   1.8417 C.3            1 <1>                0.0000
      4 O4           1.4099   0.8990   0.6124 O.3            1 <1>                0.0000
      5 P5           0.8098  -0.0316  -0.5563 P.3            1 <1>                0.0000
      6 O6           0.7554   0.7698  -1.8761 O.co2          1 <1>                0.0000
      7 O7           1.7135  -1.2708  -0.7432 O.co2          1 <1>                0.0000
      8 O8          -0.6755  -0.5061  -0.1551 O.3            1 <1>                0.0000
      9 C9          -1.4364  -1.4275  -0.9386 C.3            1 <1>                0.0000
     10 C10         -2.7959  -1.6593  -0.2760 C.3            1 <1>                0.0000
     11 N11         -3.5666  -0.4088  -0.2892 N.4            1 <1>                0.0000
     12 H12         -3.7040  -0.1085  -1.2426 H              1 <1>                0.0000
     13 H13         -4.4631  -0.5616   0.1478 H              1 <1>                0.0000
     14 H14         -3.0621   0.3027   0.2181 H              1 <1>                0.0000
     15 C15         -3.5494  -2.7219  -1.0336 C.2            1 <1>                0.0000
     16 O16         -3.4269  -3.8946  -0.7233 O.co2          1 <1>                0.0000
     17 O17         -4.2816  -2.4089  -1.9570 O.co2          1 <1>                0.0000
     18 H18          3.7524   3.3008   0.6029 H              1 <1>                0.0000
     19 H19          2.2026   3.2845  -0.2724 H              1 <1>                0.0000
     20 H20          2.2196   3.2750   1.5074 H              1 <1>                0.0000
     21 H21          3.2608   1.0421  -0.2946 H              1 <1>                0.0000
     22 H22          3.5053  -0.2031   1.8358 H              1 <1>                0.0000
     23 H23          4.5132   1.2641   1.8340 H              1 <1>                0.0000
     24 H24          2.9804   1.2383   2.7385 H              1 <1>                0.0000
     25 H25         -1.5844  -1.0188  -1.9382 H              1 <1>                0.0000
     26 H26         -0.9004  -2.3740  -1.0088 H              1 <1>                0.0000
     27 H27         -2.6474  -1.9837   0.7540 H              1 <1>                0.0000
@<TRIPOS>BOND
    1    1    2 1     
    2    1   18 1     
    3    1   19 1     
    4    1   20 1     
    5    2    3 1     
    6    2    4 1     
    7    2   21 1     
    8    3   22 1     
    9    3   23 1     
   10    3   24 1     
   11    4    5 1     
   12    5    6 ar    
   13    5    7 ar    
   14    5    8 1     
   15    8    9 1     
   16    9   10 1     
   17    9   25 1     
   18    9   26 1     
   19   10   11 1     
   20   10   15 1     
   21   10   27 1     
   22   11   12 1     
   23   11   13 1     
   24   11   14 1     
   25   15   16 ar    
   26   15   17 ar    
@<TRIPOS>SUBSTRUCTURE
      1 ****           1
@<TRIPOS>SET
DONOR_HYDROGENS      STATIC     ATOMS    <user>   **** ""
3 12 13 14
ATOM$RED        STATIC     ATOMS    COLORGROUP SYSTEM
3 12 13 14
