#       Name:                MJQ
#       Creating user name   gbret
#       Creation time:       Fri Sep  9 12:21:07 2016


#       File generated by GOLD software.
#

@<TRIPOS>MOLECULE
MJQ
    71    74     1
SMALL
NO_CHARGES


@<TRIPOS>ATOM
      1 C1           1.0126   2.4322  -0.2137 C.3            1 <1>                0.0000
      2 C2           1.6800   1.3689   0.6608 C.3            1 <1>                0.0000
      3 C3           1.4398   1.6973   2.1358 C.3            1 <1>                0.0000
      4 C4           1.0836  -0.0031   0.3401 C.3            1 <1>                0.0000
      5 N5          -0.2182  -0.1357   0.9989 N.am           1 <1>                0.0000
      6 C6          -1.3485   0.6866   0.5599 C.3            1 <1>                0.0000
      7 C7          -1.4625   1.9188   1.4598 C.3            1 <1>                0.0000
      8 C8          -2.7243   2.7028   1.0934 C.3            1 <1>                0.0000
      9 N9          -2.8339   3.8858   1.9574 N.4            1 <1>                0.0000
     10 H10         -3.6660   4.4028   1.7158 H              1 <1>                0.0000
     11 H11         -2.8873   3.5941   2.9218 H              1 <1>                0.0000
     12 H12         -2.0236   4.4730   1.8279 H              1 <1>                0.0000
     13 C13         -0.3761  -1.0141   2.0088 C.2            1 <1>                0.0000
     14 O14          0.5980  -1.4784   2.5682 O.2            1 <1>                0.0000
     15 C15         -1.7341  -1.4130   2.4360 C.ar           1 <1>                0.0000
     16 C16         -2.7437  -0.4556   2.5464 C.ar           1 <1>                0.0000
     17 C17         -4.0088  -0.8346   2.9452 C.ar           1 <1>                0.0000
     18 C18         -4.2778  -2.1603   3.2359 C.ar           1 <1>                0.0000
     19 C19         -5.6620  -2.5669   3.6714 C.3            1 <1>                0.0000
     20 C20         -3.2816  -3.1144   3.1280 C.ar           1 <1>                0.0000
     21 C21         -2.0136  -2.7496   2.7252 C.ar           1 <1>                0.0000
     22 C22          0.9084  -0.1386  -1.1505 C.2            1 <1>                0.0000
     23 O23          0.2108   0.7991  -1.8005 O.3            1 <1>                0.0000
     24 C24          0.0068   0.7541  -3.1327 C.ar           1 <1>                0.0000
     25 C25         -0.7223   1.7440  -3.7801 C.ar           1 <1>                0.0000
     26 C26         -0.9143   1.6714  -5.1448 C.ar           1 <1>                0.0000
     27 Cl27        -1.8251   2.9099  -5.9512 Cl             1 <1>                0.0000
     28 C28         -0.3860   0.6181  -5.8798 C.ar           1 <1>                0.0000
     29 C29          0.3338  -0.3658  -5.2606 C.ar           1 <1>                0.0000
     30 C30          0.5380  -0.3081  -3.8828 C.ar           1 <1>                0.0000
     31 C31          1.3077  -1.3478  -3.1735 C.2            1 <1>                0.0000
     32 O32          1.7939  -2.2949  -3.7678 O.2            1 <1>                0.0000
     33 C33          1.4650  -1.1948  -1.7703 C.2            1 <1>                0.0000
     34 C34          2.2393  -2.2168  -0.9785 C.3            1 <1>                0.0000
     35 C35          3.7130  -1.9180  -1.0779 C.ar           1 <1>                0.0000
     36 C36          4.4633  -2.4719  -2.0982 C.ar           1 <1>                0.0000
     37 C37          5.8152  -2.1978  -2.1894 C.ar           1 <1>                0.0000
     38 C38          6.4166  -1.3694  -1.2604 C.ar           1 <1>                0.0000
     39 C39          5.6661  -0.8148  -0.2406 C.ar           1 <1>                0.0000
     40 C40          4.3135  -1.0855  -0.1519 C.ar           1 <1>                0.0000
     41 H41          1.5355   3.3812  -0.0945 H              1 <1>                0.0000
     42 H42          1.0549   2.1227  -1.2579 H              1 <1>                0.0000
     43 H43         -0.0280   2.5503   0.0884 H              1 <1>                0.0000
     44 H44          2.7516   1.3548   0.4616 H              1 <1>                0.0000
     45 H45          0.3683   1.7114   2.3350 H              1 <1>                0.0000
     46 H46          1.9153   0.9398   2.7588 H              1 <1>                0.0000
     47 H47          1.8648   2.6747   2.3642 H              1 <1>                0.0000
     48 H48          1.7539  -0.7837   0.6997 H              1 <1>                0.0000
     49 H49         -1.1889   1.0030  -0.4709 H              1 <1>                0.0000
     50 H50         -2.2677   0.1043   0.6231 H              1 <1>                0.0000
     51 H51         -1.5202   1.6037   2.5016 H              1 <1>                0.0000
     52 H52         -0.5872   2.5531   1.3199 H              1 <1>                0.0000
     53 H53         -2.6666   3.0178   0.0516 H              1 <1>                0.0000
     54 H54         -3.5996   2.0684   1.2333 H              1 <1>                0.0000
     55 H55         -2.5349   0.5796   2.3205 H              1 <1>                0.0000
     56 H56         -4.7910  -0.0948   3.0310 H              1 <1>                0.0000
     57 H57         -6.2567  -2.8270   2.7957 H              1 <1>                0.0000
     58 H58         -5.5956  -3.4293   4.3347 H              1 <1>                0.0000
     59 H59         -6.1350  -1.7385   4.1987 H              1 <1>                0.0000
     60 H60         -3.4982  -4.1476   3.3560 H              1 <1>                0.0000
     61 H61         -1.2369  -3.4954   2.6411 H              1 <1>                0.0000
     62 H62         -1.1374   2.5670  -3.2173 H              1 <1>                0.0000
     63 H63         -0.5451   0.5756  -6.9471 H              1 <1>                0.0000
     64 H64          0.7422  -1.1834  -5.8361 H              1 <1>                0.0000
     65 H65          1.9302  -2.1774   0.0660 H              1 <1>                0.0000
     66 H66          2.0425  -3.2115  -1.3784 H              1 <1>                0.0000
     67 H67          3.9934  -3.1191  -2.8240 H              1 <1>                0.0000
     68 H68          6.4015  -2.6312  -2.9861 H              1 <1>                0.0000
     69 H69          7.4729  -1.1559  -1.3312 H              1 <1>                0.0000
     70 H70          6.1361  -0.1679   0.4854 H              1 <1>                0.0000
     71 H71          3.7271  -0.6521   0.6448 H              1 <1>                0.0000
@<TRIPOS>BOND
    1    1    2 1     
    2    1   41 1     
    3    1   42 1     
    4    1   43 1     
    5    2    3 1     
    6    2    4 1     
    7    2   44 1     
    8    3   45 1     
    9    3   46 1     
   10    3   47 1     
   11    4    5 1     
   12    4   22 1     
   13    4   48 1     
   14    5    6 1     
   15    5   13 am    
   16    6    7 1     
   17    6   49 1     
   18    6   50 1     
   19    7    8 1     
   20    7   51 1     
   21    7   52 1     
   22    8    9 1     
   23    8   53 1     
   24    8   54 1     
   25    9   10 1     
   26    9   11 1     
   27    9   12 1     
   28   13   14 2     
   29   13   15 1     
   30   15   21 ar    
   31   15   16 ar    
   32   16   17 ar    
   33   16   55 1     
   34   17   18 ar    
   35   17   56 1     
   36   18   19 1     
   37   18   20 ar    
   38   19   57 1     
   39   19   58 1     
   40   19   59 1     
   41   20   21 ar    
   42   20   60 1     
   43   21   61 1     
   44   22   33 2     
   45   22   23 1     
   46   23   24 1     
   47   24   30 ar    
   48   24   25 ar    
   49   25   26 ar    
   50   25   62 1     
   51   26   27 1     
   52   26   28 ar    
   53   28   29 ar    
   54   28   63 1     
   55   29   30 ar    
   56   29   64 1     
   57   30   31 1     
   58   31   32 2     
   59   31   33 1     
   60   33   34 1     
   61   34   35 1     
   62   34   65 1     
   63   34   66 1     
   64   35   40 ar    
   65   35   36 ar    
   66   36   37 ar    
   67   36   67 1     
   68   37   38 ar    
   69   37   68 1     
   70   38   39 ar    
   71   38   69 1     
   72   39   40 ar    
   73   39   70 1     
   74   40   71 1     
@<TRIPOS>SUBSTRUCTURE
      1 ****           1
@<TRIPOS>SET
DONOR_HYDROGENS      STATIC     ATOMS    <user>   **** ""
3 10 11 12
ATOM$RED        STATIC     ATOMS    COLORGROUP SYSTEM
3 10 11 12
