#       Name:                MKU
#       Creating user name   gbret
#       Creation time:       Fri Sep  9 12:22:34 2016


#       File generated by GOLD software.
#

@<TRIPOS>MOLECULE
MKU
    55    58     1
SMALL
NO_CHARGES


@<TRIPOS>ATOM
      1 C1          -4.0264   2.7400   3.1700 C.3            1 <1>                0.0000
      2 O2          -3.9818   1.3129   3.1123 O.3            1 <1>                0.0000
      3 C3          -3.4293   0.7567   2.0005 C.ar           1 <1>                0.0000
      4 C4          -4.2302   0.4640   0.8937 C.ar           1 <1>                0.0000
      5 O5          -5.5600   0.7362   0.9339 O.3            1 <1>                0.0000
      6 C6          -3.6798  -0.1005  -0.2429 C.ar           1 <1>                0.0000
      7 C7          -2.3200  -0.3826  -0.2942 C.ar           1 <1>                0.0000
      8 O8          -1.7896  -0.9319  -1.4070 O.3            1 <1>                0.0000
      9 C9          -0.4829  -1.2421  -1.5341 C.ar           1 <1>                0.0000
     10 C10         -0.0166  -1.8128  -2.7078 C.ar           1 <1>                0.0000
     11 C11          1.3282  -2.1384  -2.8523 C.ar           1 <1>                0.0000
     12 O12          1.7280  -2.7055  -4.0197 O.3            1 <1>                0.0000
     13 C13          3.1231  -2.6989  -4.3233 C.3            1 <1>                0.0000
     14 C14          3.3933  -3.6075  -5.5243 C.3            1 <1>                0.0000
     15 C15          3.5737  -1.2725  -4.6447 C.3            1 <1>                0.0000
     16 C16          3.8878  -3.2195  -3.0995 C.3            1 <1>                0.0000
     17 C17          3.6873  -2.2273  -1.9513 C.3            1 <1>                0.0000
     18 C18          2.2233  -1.8907  -1.8209 C.ar           1 <1>                0.0000
     19 C19          1.7774  -1.3213  -0.6389 C.ar           1 <1>                0.0000
     20 O20          2.6506  -1.0796   0.3710 O.co2          1 <1>                0.0000
     21 C21          0.4236  -0.9957  -0.4889 C.ar           1 <1>                0.0000
     22 C22         -0.0752  -0.3927   0.7581 C.2            1 <1>                0.0000
     23 O23          0.6675  -0.1553   1.6939 O.2            1 <1>                0.0000
     24 C24         -1.5182  -0.0885   0.8198 C.ar           1 <1>                0.0000
     25 C25         -2.0773   0.4868   1.9633 C.ar           1 <1>                0.0000
     26 C26         -1.2084   0.8067   3.1522 C.3            1 <1>                0.0000
     27 C27         -0.5489   2.1461   2.9466 C.2            1 <1>                0.0000
     28 C28         -0.6577   3.0771   3.8617 C.2            1 <1>                0.0000
     29 C29         -1.3501   2.7748   5.1657 C.3            1 <1>                0.0000
     30 C30         -0.0906   4.4506   3.6105 C.3            1 <1>                0.0000
     31 H31         -3.0129   3.1376   3.1164 H              1 <1>                0.0000
     32 H32         -4.6104   3.1195   2.3315 H              1 <1>                0.0000
     33 H33         -4.4899   3.0515   4.1061 H              1 <1>                0.0000
     34 H34         -5.7899   1.6215   0.6200 H              1 <1>                0.0000
     35 H35         -4.3084  -0.3228  -1.0925 H              1 <1>                0.0000
     36 H36         -0.7038  -2.0069  -3.5180 H              1 <1>                0.0000
     37 H37          2.8339  -3.2453  -6.3869 H              1 <1>                0.0000
     38 H38          4.4590  -3.6000  -5.7531 H              1 <1>                0.0000
     39 H39          3.0795  -4.6243  -5.2885 H              1 <1>                0.0000
     40 H40          3.3880  -0.6302  -3.7839 H              1 <1>                0.0000
     41 H41          4.6389  -1.2714  -4.8759 H              1 <1>                0.0000
     42 H42          3.0151  -0.8999  -5.5034 H              1 <1>                0.0000
     43 H43          3.5003  -4.1970  -2.8125 H              1 <1>                0.0000
     44 H44          4.9489  -3.2990  -3.3356 H              1 <1>                0.0000
     45 H45          4.0415  -2.6723  -1.0214 H              1 <1>                0.0000
     46 H46          4.2519  -1.3175  -2.1554 H              1 <1>                0.0000
     47 H47         -1.8219   0.8382   4.0527 H              1 <1>                0.0000
     48 H48         -0.4434   0.0379   3.2605 H              1 <1>                0.0000
     49 H49          0.0133   2.3384   2.0448 H              1 <1>                0.0000
     50 H50         -0.6415   2.3162   5.8554 H              1 <1>                0.0000
     51 H51         -1.7309   3.7001   5.5979 H              1 <1>                0.0000
     52 H52         -2.1785   2.0894   4.9868 H              1 <1>                0.0000
     53 H53          0.3680   4.4790   2.6221 H              1 <1>                0.0000
     54 H54         -0.8908   5.1890   3.6612 H              1 <1>                0.0000
     55 H55          0.6612   4.6771   4.3665 H              1 <1>                0.0000
@<TRIPOS>BOND
    1    1    2 1     
    2    1   31 1     
    3    1   32 1     
    4    1   33 1     
    5    2    3 1     
    6    3   25 ar    
    7    3    4 ar    
    8    4    5 1     
    9    4    6 ar    
   10    5   34 1     
   11    6    7 ar    
   12    6   35 1     
   13    7   24 ar    
   14    7    8 1     
   15    8    9 1     
   16    9   21 ar    
   17    9   10 ar    
   18   10   11 ar    
   19   10   36 1     
   20   11   18 ar    
   21   11   12 1     
   22   12   13 1     
   23   13   14 1     
   24   13   15 1     
   25   13   16 1     
   26   14   37 1     
   27   14   38 1     
   28   14   39 1     
   29   15   40 1     
   30   15   41 1     
   31   15   42 1     
   32   16   17 1     
   33   16   43 1     
   34   16   44 1     
   35   17   18 1     
   36   17   45 1     
   37   17   46 1     
   38   18   19 ar    
   39   19   20 ar    
   40   19   21 ar    
   41   21   22 1     
   42   22   23 2     
   43   22   24 1     
   44   24   25 ar    
   45   25   26 1     
   46   26   27 1     
   47   26   47 1     
   48   26   48 1     
   49   27   28 2     
   50   27   49 1     
   51   28   29 1     
   52   28   30 1     
   53   29   50 1     
   54   29   51 1     
   55   29   52 1     
   56   30   53 1     
   57   30   54 1     
   58   30   55 1     
@<TRIPOS>SUBSTRUCTURE
      1 ****           1
@<TRIPOS>SET
DONOR_HYDROGENS      STATIC     ATOMS    <user>   **** ""
1 34
ATOM$RED        STATIC     ATOMS    COLORGROUP SYSTEM
1 34
