#       Name:                MP7
#       Creating user name   gbret
#       Creation time:       Fri Sep  9 12:29:52 2016


#       File generated by GOLD software.
#

@<TRIPOS>MOLECULE
MP7
    60    64     1
SMALL
NO_CHARGES


@<TRIPOS>ATOM
      1 F1          -3.8971  -5.8982  -1.8474 F              1 <1>                0.0000
      2 C2          -3.9255  -4.5477  -1.8253 C.ar           1 <1>                0.0000
      3 C3          -5.1380  -3.8807  -1.7934 C.ar           1 <1>                0.0000
      4 C4          -5.1663  -2.4991  -1.7709 C.ar           1 <1>                0.0000
      5 C5          -3.9844  -1.7817  -1.7801 C.ar           1 <1>                0.0000
      6 C6          -4.0180  -0.2753  -1.7550 C.3            1 <1>                0.0000
      7 N7          -4.0045   0.1903  -0.3660 N.am           1 <1>                0.0000
      8 C8          -5.1768   0.3702   0.2879 C.2            1 <1>                0.0000
      9 C9          -5.2059   0.7999   1.5754 C.2            1 <1>                0.0000
     10 C10         -4.0155   1.0658   2.2518 C.2            1 <1>                0.0000
     11 C11         -2.8055   0.8831   1.5853 C.2            1 <1>                0.0000
     12 C12         -1.5290   1.1523   2.2645 C.2            1 <1>                0.0000
     13 O13         -1.5240   1.6380   3.3798 O.2            1 <1>                0.0000
     14 N14         -0.3648   0.8608   1.6511 N.am           1 <1>                0.0000
     15 C15          0.9020   1.0235   2.3687 C.3            1 <1>                0.0000
     16 C16          1.9553   0.0950   1.7610 C.3            1 <1>                0.0000
     17 O17          2.2275   0.4982   0.4174 O.3            1 <1>                0.0000
     18 C18          3.1481  -0.2283  -0.2707 C.ar           1 <1>                0.0000
     19 C19          3.7709  -1.3108   0.3369 C.ar           1 <1>                0.0000
     20 C20          4.7067  -2.0529  -0.3559 C.ar           1 <1>                0.0000
     21 C21          5.0262  -1.7169  -1.6625 C.ar           1 <1>                0.0000
     22 N22          5.9061  -2.2568  -2.6007 N.am           1 <1>                0.0000
     23 H23          6.4822  -3.0249  -2.4628 H              1 <1>                0.0000
     24 C24          5.8188  -1.5297  -3.7305 C.2            1 <1>                0.0000
     25 O25          6.4554  -1.7353  -4.7470 O.2            1 <1>                0.0000
     26 N26          4.9198  -0.5412  -3.5653 N.am           1 <1>                0.0000
     27 H27          4.6744   0.1196  -4.2316 H              1 <1>                0.0000
     28 C28          4.4015  -0.6292  -2.2755 C.ar           1 <1>                0.0000
     29 C29          3.4583   0.1097  -1.5778 C.ar           1 <1>                0.0000
     30 C30          1.3652   2.4529   2.2524 C.ar           1 <1>                0.0000
     31 C31          1.2172   3.1323   1.0577 C.ar           1 <1>                0.0000
     32 C32          1.6421   4.4434   0.9510 C.ar           1 <1>                0.0000
     33 C33          2.2145   5.0752   2.0391 C.ar           1 <1>                0.0000
     34 C34          2.3617   4.3960   3.2341 C.ar           1 <1>                0.0000
     35 C35          1.9329   3.0863   3.3420 C.ar           1 <1>                0.0000
     36 C36         -2.8265   0.4274   0.2417 C.2            1 <1>                0.0000
     37 O37         -1.7818   0.2597  -0.3633 O.2            1 <1>                0.0000
     38 C38         -2.7721  -2.4447  -1.8119 C.ar           1 <1>                0.0000
     39 C39         -2.7402  -3.8284  -1.8287 C.ar           1 <1>                0.0000
     40 F40         -1.5556  -4.4772  -1.8594 F              1 <1>                0.0000
     41 H41         -6.0619  -4.4400  -1.7865 H              1 <1>                0.0000
     42 H42         -6.1126  -1.9793  -1.7464 H              1 <1>                0.0000
     43 H43         -3.1456   0.1164  -2.2781 H              1 <1>                0.0000
     44 H44         -4.9249   0.0761  -2.2472 H              1 <1>                0.0000
     45 H45         -6.1058   0.1682  -0.2245 H              1 <1>                0.0000
     46 H46         -6.1527   0.9365   2.0767 H              1 <1>                0.0000
     47 H47         -4.0313   1.4083   3.2759 H              1 <1>                0.0000
     48 H48         -0.3657   0.5432   0.7346 H              1 <1>                0.0000
     49 H49          0.7591   0.7723   3.4197 H              1 <1>                0.0000
     50 H50          2.8712   0.1501   2.3495 H              1 <1>                0.0000
     51 H51          1.5823  -0.9292   1.7645 H              1 <1>                0.0000
     52 H52          3.5227  -1.5728   1.3548 H              1 <1>                0.0000
     53 H53          5.1895  -2.8939   0.1196 H              1 <1>                0.0000
     54 H54          2.9682   0.9475  -2.0514 H              1 <1>                0.0000
     55 H55          0.7700   2.6387   0.2075 H              1 <1>                0.0000
     56 H56          1.5271   4.9740   0.0173 H              1 <1>                0.0000
     57 H57          2.5471   6.0993   1.9555 H              1 <1>                0.0000
     58 H58          2.8092   4.8895   4.0841 H              1 <1>                0.0000
     59 H59          2.0479   2.5557   4.2756 H              1 <1>                0.0000
     60 H60         -1.8496  -1.8832  -1.8195 H              1 <1>                0.0000
@<TRIPOS>BOND
    1    1    2 1     
    2    2   39 ar    
    3    2    3 ar    
    4    3    4 ar    
    5    3   41 1     
    6    4    5 ar    
    7    4   42 1     
    8    5    6 1     
    9    5   38 ar    
   10    6    7 1     
   11    6   43 1     
   12    6   44 1     
   13    7   36 am    
   14    7    8 1     
   15    8    9 2     
   16    8   45 1     
   17    9   10 1     
   18    9   46 1     
   19   10   11 2     
   20   10   47 1     
   21   11   12 1     
   22   11   36 1     
   23   12   13 2     
   24   12   14 am    
   25   14   15 1     
   26   14   48 1     
   27   15   16 1     
   28   15   30 1     
   29   15   49 1     
   30   16   17 1     
   31   16   50 1     
   32   16   51 1     
   33   17   18 1     
   34   18   29 ar    
   35   18   19 ar    
   36   19   20 ar    
   37   19   52 1     
   38   20   21 ar    
   39   20   53 1     
   40   21   28 ar    
   41   21   22 1     
   42   22   23 1     
   43   22   24 am    
   44   24   25 2     
   45   24   26 am    
   46   26   27 1     
   47   26   28 1     
   48   28   29 ar    
   49   29   54 1     
   50   30   35 ar    
   51   30   31 ar    
   52   31   32 ar    
   53   31   55 1     
   54   32   33 ar    
   55   32   56 1     
   56   33   34 ar    
   57   33   57 1     
   58   34   35 ar    
   59   34   58 1     
   60   35   59 1     
   61   36   37 2     
   62   38   39 ar    
   63   38   60 1     
   64   39   40 1     
@<TRIPOS>SUBSTRUCTURE
      1 ****           1
@<TRIPOS>SET
DONOR_HYDROGENS      STATIC     ATOMS    <user>   **** ""
3 48 23 27
ATOM$RED        STATIC     ATOMS    COLORGROUP SYSTEM
3 48 23 27
