#       Name:                MPC
#       Creating user name   gbret
#       Creation time:       Fri Sep  9 12:30:12 2016


#       File generated by GOLD software.
#

@<TRIPOS>MOLECULE
MPC
    52    52     1
SMALL
NO_CHARGES


@<TRIPOS>ATOM
      1 C1          -3.3047   6.4578  -2.9116 C.3            1 <1>                0.0000
      2 C2          -2.9439   4.9767  -3.0424 C.3            1 <1>                0.0000
      3 C3          -2.2903   4.4945  -1.7458 C.3            1 <1>                0.0000
      4 C4          -1.9295   3.0135  -1.8766 C.3            1 <1>                0.0000
      5 C5          -1.2759   2.5313  -0.5799 C.3            1 <1>                0.0000
      6 C6          -0.9151   1.0502  -0.7108 C.3            1 <1>                0.0000
      7 P7          -0.1364   0.4757   0.8342 P.3            1 <1>                0.0000
      8 O8           1.2091   1.2079   1.0359 O.co2          1 <1>                0.0000
      9 O9          -1.0715   0.7791   2.0261 O.co2          1 <1>                0.0000
     10 O10          0.1238  -1.1107   0.7464 O.3            1 <1>                0.0000
     11 C11          0.6279  -1.8784   1.8411 C.3            1 <1>                0.0000
     12 C12         -0.3864  -2.9612   2.2146 C.3            1 <1>                0.0000
     13 C13         -0.6189  -3.8787   1.0124 C.3            1 <1>                0.0000
     14 C14         -1.1586  -3.0567  -0.1597 C.3            1 <1>                0.0000
     15 C15          0.7028  -4.5354   0.6090 C.3            1 <1>                0.0000
     16 C16          1.7172  -3.4526   0.2355 C.3            1 <1>                0.0000
     17 C17          1.9496  -2.5351   1.4377 C.3            1 <1>                0.0000
     18 C18          2.9640  -1.4523   1.0642 C.3            1 <1>                0.0000
     19 C19          3.1964  -0.5348   2.2664 C.3            1 <1>                0.0000
     20 C20          4.2857  -2.1090   0.6608 C.3            1 <1>                0.0000
     21 H21         -2.4006   7.0367  -2.7233 H              1 <1>                0.0000
     22 H22         -3.7703   6.8013  -3.8353 H              1 <1>                0.0000
     23 H23         -4.0002   6.5905  -2.0829 H              1 <1>                0.0000
     24 H24         -3.8481   4.3977  -3.2306 H              1 <1>                0.0000
     25 H25         -2.2484   4.8440  -3.8711 H              1 <1>                0.0000
     26 H26         -1.3862   5.0735  -1.5575 H              1 <1>                0.0000
     27 H27         -2.9858   4.6273  -0.9171 H              1 <1>                0.0000
     28 H28         -2.8337   2.4345  -2.0648 H              1 <1>                0.0000
     29 H29         -1.2340   2.8807  -2.7053 H              1 <1>                0.0000
     30 H30         -0.3718   3.1103  -0.3917 H              1 <1>                0.0000
     31 H31         -1.9714   2.6640   0.2487 H              1 <1>                0.0000
     32 H32         -1.8193   0.4713  -0.8990 H              1 <1>                0.0000
     33 H33         -0.2196   0.9175  -1.5394 H              1 <1>                0.0000
     34 H34          0.7935  -1.2248   2.6975 H              1 <1>                0.0000
     35 H35         -0.0019  -3.5469   3.0496 H              1 <1>                0.0000
     36 H36         -1.3280  -2.4934   2.5020 H              1 <1>                0.0000
     37 H37         -1.3415  -4.6501   1.2785 H              1 <1>                0.0000
     38 H38         -0.3649  -2.4227  -0.5548 H              1 <1>                0.0000
     39 H39         -1.5110  -3.7282  -0.9427 H              1 <1>                0.0000
     40 H40         -1.9845  -2.4335   0.1834 H              1 <1>                0.0000
     41 H41          1.0873  -5.1210   1.4440 H              1 <1>                0.0000
     42 H42          0.5372  -5.1890  -0.2475 H              1 <1>                0.0000
     43 H43          2.6588  -3.9204  -0.0519 H              1 <1>                0.0000
     44 H44          1.3327  -2.8670  -0.5995 H              1 <1>                0.0000
     45 H45          2.3342  -3.1208   2.2727 H              1 <1>                0.0000
     46 H46          2.5795  -0.8667   0.2292 H              1 <1>                0.0000
     47 H47          3.5810  -1.1205   3.1014 H              1 <1>                0.0000
     48 H48          3.9191   0.2366   2.0003 H              1 <1>                0.0000
     49 H49          2.2548  -0.0670   2.5538 H              1 <1>                0.0000
     50 H50          4.1201  -2.7626  -0.1956 H              1 <1>                0.0000
     51 H51          5.0084  -1.3376   0.3947 H              1 <1>                0.0000
     52 H52          4.6702  -2.6946   1.4958 H              1 <1>                0.0000
@<TRIPOS>BOND
    1    1    2 1     
    2    1   21 1     
    3    1   22 1     
    4    1   23 1     
    5    2    3 1     
    6    2   24 1     
    7    2   25 1     
    8    3    4 1     
    9    3   26 1     
   10    3   27 1     
   11    4    5 1     
   12    4   28 1     
   13    4   29 1     
   14    5    6 1     
   15    5   30 1     
   16    5   31 1     
   17    6    7 1     
   18    6   32 1     
   19    6   33 1     
   20    7    8 ar    
   21    7    9 ar    
   22    7   10 1     
   23   10   11 1     
   24   11   17 1     
   25   11   12 1     
   26   11   34 1     
   27   12   13 1     
   28   12   35 1     
   29   12   36 1     
   30   13   14 1     
   31   13   15 1     
   32   13   37 1     
   33   14   38 1     
   34   14   39 1     
   35   14   40 1     
   36   15   16 1     
   37   15   41 1     
   38   15   42 1     
   39   16   17 1     
   40   16   43 1     
   41   16   44 1     
   42   17   18 1     
   43   17   45 1     
   44   18   19 1     
   45   18   20 1     
   46   18   46 1     
   47   19   47 1     
   48   19   48 1     
   49   19   49 1     
   50   20   50 1     
   51   20   51 1     
   52   20   52 1     
@<TRIPOS>SUBSTRUCTURE
      1 ****           1
