#       Name:                MRN
#       Creating user name   gbret
#       Creation time:       Fri Sep  9 12:33:58 2016


#       File generated by GOLD software.
#

@<TRIPOS>MOLECULE
MRN
    39    40     1
SMALL
NO_CHARGES


@<TRIPOS>ATOM
      1 C1          -3.5935  -0.9897   1.1279 C.3            1 <1>                0.0000
      2 C2          -3.2320   0.4933   1.2329 C.3            1 <1>                0.0000
      3 C3          -4.4953   1.3395   1.0626 C.3            1 <1>                0.0000
      4 O4          -2.6537   0.7531   2.5135 O.3            1 <1>                0.0000
      5 C5          -1.3262   0.4987   2.6541 C.ar           1 <1>                0.0000
      6 C6          -0.7187   0.6440   3.8937 C.ar           1 <1>                0.0000
      7 C7           0.6309   0.3852   4.0384 C.ar           1 <1>                0.0000
      8 C8           1.3801  -0.0186   2.9501 C.ar           1 <1>                0.0000
      9 C9           0.7775  -0.1657   1.7071 C.ar           1 <1>                0.0000
     10 N10          1.5357  -0.5744   0.6055 N.am           1 <1>                0.0000
     11 C11          1.2633  -0.0832  -0.6197 C.2            1 <1>                0.0000
     12 O12          0.3043   0.6459  -0.7827 O.2            1 <1>                0.0000
     13 C13          2.1305  -0.4309  -1.7650 C.ar           1 <1>                0.0000
     14 C14          3.1547  -1.3670  -1.6101 C.ar           1 <1>                0.0000
     15 C15          3.9601  -1.6873  -2.6831 C.ar           1 <1>                0.0000
     16 C16          3.7547  -1.0831  -3.9110 C.ar           1 <1>                0.0000
     17 C17          2.7419  -0.1544  -4.0712 C.ar           1 <1>                0.0000
     18 C18          1.9255   0.1708  -3.0076 C.ar           1 <1>                0.0000
     19 C19          0.8224   1.1823  -3.1839 C.3            1 <1>                0.0000
     20 C20         -0.5794   0.0884   1.5613 C.ar           1 <1>                0.0000
     21 H21         -2.6936  -1.5925   1.2493 H              1 <1>                0.0000
     22 H22         -4.3099  -1.2451   1.9087 H              1 <1>                0.0000
     23 H23         -4.0347  -1.1878   0.1511 H              1 <1>                0.0000
     24 H24         -2.5156   0.7488   0.4521 H              1 <1>                0.0000
     25 H25         -5.2117   1.0840   1.8434 H              1 <1>                0.0000
     26 H26         -4.2378   2.3960   1.1374 H              1 <1>                0.0000
     27 H27         -4.9365   1.1413   0.0858 H              1 <1>                0.0000
     28 H28         -1.3016   0.9602   4.7462 H              1 <1>                0.0000
     29 H29          1.1010   0.4991   5.0040 H              1 <1>                0.0000
     30 H30          2.4349  -0.2195   3.0656 H              1 <1>                0.0000
     31 H31          2.2578  -1.2114   0.7230 H              1 <1>                0.0000
     32 H32          3.3162  -1.8390  -0.6523 H              1 <1>                0.0000
     33 H33          4.7529  -2.4110  -2.5646 H              1 <1>                0.0000
     34 H34          4.3881  -1.3375  -4.7480 H              1 <1>                0.0000
     35 H35          2.5872   0.3138  -5.0321 H              1 <1>                0.0000
     36 H36         -0.1186   0.6649  -3.3707 H              1 <1>                0.0000
     37 H37          0.7330   1.7838  -2.2793 H              1 <1>                0.0000
     38 H38          1.0550   1.8299  -4.0293 H              1 <1>                0.0000
     39 H39         -1.0504  -0.0253   0.5960 H              1 <1>                0.0000
@<TRIPOS>BOND
    1    1    2 1     
    2    1   21 1     
    3    1   22 1     
    4    1   23 1     
    5    2    3 1     
    6    2    4 1     
    7    2   24 1     
    8    3   25 1     
    9    3   26 1     
   10    3   27 1     
   11    4    5 1     
   12    5   20 ar    
   13    5    6 ar    
   14    6    7 ar    
   15    6   28 1     
   16    7    8 ar    
   17    7   29 1     
   18    8    9 ar    
   19    8   30 1     
   20    9   10 1     
   21    9   20 ar    
   22   10   11 am    
   23   10   31 1     
   24   11   12 2     
   25   11   13 1     
   26   13   18 ar    
   27   13   14 ar    
   28   14   15 ar    
   29   14   32 1     
   30   15   16 ar    
   31   15   33 1     
   32   16   17 ar    
   33   16   34 1     
   34   17   18 ar    
   35   17   35 1     
   36   18   19 1     
   37   19   36 1     
   38   19   37 1     
   39   19   38 1     
   40   20   39 1     
@<TRIPOS>SUBSTRUCTURE
      1 ****           1
@<TRIPOS>SET
DONOR_HYDROGENS      STATIC     ATOMS    <user>   **** ""
1 31
ATOM$RED        STATIC     ATOMS    COLORGROUP SYSTEM
1 31
