#       Name:                MXC
#       Creating user name   gbret
#       Creation time:       Fri Sep  9 12:42:25 2016


#       File generated by GOLD software.
#

@<TRIPOS>MOLECULE
MXC
    45    46     1
SMALL
NO_CHARGES


@<TRIPOS>ATOM
      1 C1           0.2346   1.6177  -1.2936 C.3            1 <1>                0.0000
      2 C2           1.5835   1.0205  -0.8876 C.3            1 <1>                0.0000
      3 C3           2.2338   1.9064   0.1770 C.3            1 <1>                0.0000
      4 O4           2.4370   3.2397  -0.3611 O.3            1 <1>                0.0000
      5 C5           3.0039   4.1482   0.4549 C.2            1 <1>                0.0000
      6 N6           3.2206   5.4045   0.0175 N.am           1 <1>                0.0000
      7 O7           3.3203   3.8356   1.5857 O.2            1 <1>                0.0000
      8 C8           1.3693  -0.3843  -0.3206 C.3            1 <1>                0.0000
      9 N9           0.7450  -1.2349  -1.3427 N.3            1 <1>                0.0000
     10 C10         -0.6208  -1.3005  -1.1641 C.2            1 <1>                0.0000
     11 C11         -1.5854  -1.0150  -2.1348 C.2            1 <1>                0.0000
     12 C12         -1.3409  -0.6087  -3.4707 C.2            1 <1>                0.0000
     13 O13         -2.2718  -0.3902  -4.2187 O.2            1 <1>                0.0000
     14 C14         -2.8506  -1.2080  -1.5340 C.2            1 <1>                0.0000
     15 C15         -2.6229  -1.6011  -0.2293 C.2            1 <1>                0.0000
     16 C16         -3.5140  -1.9235   0.8110 C.2            1 <1>                0.0000
     17 C17         -3.0071  -2.2925   2.0456 C.2            1 <1>                0.0000
     18 C18         -1.5506  -2.3355   2.2296 C.2            1 <1>                0.0000
     19 C19         -0.7412  -2.0204   1.2112 C.2            1 <1>                0.0000
     20 N20         -1.2520  -1.6577  -0.0215 N.pl3          1 <1>                0.0000
     21 C21         -3.9115  -2.6350   3.1537 C.2            1 <1>                0.0000
     22 N22         -3.4055  -2.9927   4.3506 N.am           1 <1>                0.0000
     23 O23         -5.1165  -2.5956   2.9898 O.2            1 <1>                0.0000
     24 C24          2.6979  -0.9725   0.0793 C.2            1 <1>                0.0000
     25 O25          3.2973  -0.5257   1.0424 O.co2          1 <1>                0.0000
     26 O26          3.1734  -1.8952  -0.5603 O.co2          1 <1>                0.0000
     27 S27          2.6656   0.9278  -2.3405 S.2            1 <1>                0.0000
     28 O28          3.0363   2.3140  -2.6666 O.co2          1 <1>                0.0000
     29 O29          3.9342   0.3474  -1.8722 O.2            1 <1>                0.0000
     30 H30          0.3872   2.6186  -1.6975 H              1 <1>                0.0000
     31 H31         -0.2286   0.9866  -2.0520 H              1 <1>                0.0000
     32 H32         -0.4156   1.6734  -0.4206 H              1 <1>                0.0000
     33 H33          1.5835   1.9622   1.0500 H              1 <1>                0.0000
     34 H34          3.1947   1.4810   0.4662 H              1 <1>                0.0000
     35 H35          3.6289   6.0590   0.6055 H              1 <1>                0.0000
     36 H36          2.9681   5.6541  -0.8851 H              1 <1>                0.0000
     37 H37          0.7191  -0.3286   0.5524 H              1 <1>                0.0000
     38 H38          0.9732  -0.9116  -2.2709 H              1 <1>                0.0000
     39 H39         -0.3265  -0.4935  -3.8230 H              1 <1>                0.0000
     40 H40         -3.8128  -1.0732  -2.0055 H              1 <1>                0.0000
     41 H41         -4.5810  -1.8833   0.6485 H              1 <1>                0.0000
     42 H42         -1.1337  -2.6202   3.1843 H              1 <1>                0.0000
     43 H43          0.3289  -2.0541   1.3534 H              1 <1>                0.0000
     44 H44         -4.0020  -3.2187   5.0814 H              1 <1>                0.0000
     45 H45         -2.4449  -3.0243   4.4812 H              1 <1>                0.0000
@<TRIPOS>BOND
    1    1    2 1     
    2    1   30 1     
    3    1   31 1     
    4    1   32 1     
    5    2    3 1     
    6    2    8 1     
    7    2   27 1     
    8    3    4 1     
    9    3   33 1     
   10    3   34 1     
   11    4    5 1     
   12    5    6 am    
   13    5    7 2     
   14    6   35 1     
   15    6   36 1     
   16    8    9 1     
   17    8   24 1     
   18    8   37 1     
   19    9   10 1     
   20    9   38 1     
   21   10   20 1     
   22   10   11 2     
   23   11   12 1     
   24   11   14 1     
   25   12   13 2     
   26   12   39 1     
   27   14   15 2     
   28   14   40 1     
   29   15   20 1     
   30   15   16 1     
   31   16   17 2     
   32   16   41 1     
   33   17   18 1     
   34   17   21 1     
   35   18   19 2     
   36   18   42 1     
   37   19   20 1     
   38   19   43 1     
   39   21   22 am    
   40   21   23 2     
   41   22   44 1     
   42   22   45 1     
   43   24   25 ar    
   44   24   26 ar    
   45   27   28 1     
   46   27   29 2     
@<TRIPOS>SUBSTRUCTURE
      1 ****           1
@<TRIPOS>SET
DONOR_HYDROGENS      STATIC     ATOMS    <user>   **** ""
5 35 36 38 44 45
ATOM$RED        STATIC     ATOMS    COLORGROUP SYSTEM
5 35 36 38 44 45
