#       Name:                N3E
#       Creating user name   gbret
#       Creation time:       Fri Sep  9 12:50:42 2016


#       File generated by GOLD software.
#

@<TRIPOS>MOLECULE
N3E
    46    48     1
SMALL
NO_CHARGES


@<TRIPOS>ATOM
      1 O1           1.4449   3.2183   1.2660 O.3            1 <1>                0.0000
      2 C2           1.4513   1.8127   1.0087 C.3            1 <1>                0.0000
      3 C3           0.0111   1.3032   0.9240 C.3            1 <1>                0.0000
      4 O4          -0.6219   1.7832  -0.2821 O.3            1 <1>                0.0000
      5 C5          -1.7301   0.8863  -0.5131 C.3            1 <1>                0.0000
      6 C6          -1.1799  -0.5166  -0.1732 C.3            1 <1>                0.0000
      7 O7          -0.7092  -1.1695  -1.3540 O.3            1 <1>                0.0000
      8 C8          -0.0081  -0.2360   0.7940 C.3            1 <1>                0.0000
      9 N9           1.2565  -0.7203   0.2245 N.4            1 <1>                0.0000
     10 H10          2.0200  -0.4530   0.8277 H              1 <1>                0.0000
     11 C11          1.2126  -2.1831   0.1125 C.3            1 <1>                0.0000
     12 C12          2.5571  -2.6996  -0.4042 C.3            1 <1>                0.0000
     13 C13          2.8376  -2.0888  -1.7803 C.3            1 <1>                0.0000
     14 C14          2.8075  -0.5620  -1.6659 C.3            1 <1>                0.0000
     15 C15          1.4528  -0.1261  -1.1032 C.3            1 <1>                0.0000
     16 C16          4.1957  -2.5315  -2.2607 C.2            1 <1>                0.0000
     17 O17          4.3620  -2.8250  -3.4323 O.co2          1 <1>                0.0000
     18 O18          5.1281  -2.5961  -1.4778 O.co2          1 <1>                0.0000
     19 N19         -2.8505   1.2222   0.3689 N.am           1 <1>                0.0000
     20 C20         -2.7326   2.2646   1.2474 C.2            1 <1>                0.0000
     21 C21         -3.7654   2.5744   2.0600 C.2            1 <1>                0.0000
     22 C22         -4.9544   1.8096   1.9849 C.2            1 <1>                0.0000
     23 O23         -5.8995   2.0702   2.7073 O.2            1 <1>                0.0000
     24 N24         -5.0309   0.7901   1.1057 N.am           1 <1>                0.0000
     25 H25         -5.8422   0.2615   1.0483 H              1 <1>                0.0000
     26 C26         -3.9878   0.5063   0.3037 C.2            1 <1>                0.0000
     27 O27         -4.0713  -0.4157  -0.4845 O.2            1 <1>                0.0000
     28 H28          2.3265   3.6100   1.3324 H              1 <1>                0.0000
     29 H29          1.9615   1.6183   0.0653 H              1 <1>                0.0000
     30 H30          1.9719   1.2978   1.8161 H              1 <1>                0.0000
     31 H31         -0.5539   1.6169   1.8017 H              1 <1>                0.0000
     32 H32         -2.0417   0.9290  -1.5568 H              1 <1>                0.0000
     33 H33         -1.9455  -1.1190   0.3157 H              1 <1>                0.0000
     34 H34         -1.3932  -1.3159  -2.0217 H              1 <1>                0.0000
     35 H35         -0.1936  -0.6989   1.7632 H              1 <1>                0.0000
     36 H36          1.0096  -2.6162   1.0919 H              1 <1>                0.0000
     37 H37          0.4226  -2.4703  -0.5815 H              1 <1>                0.0000
     38 H38          3.3478  -2.4131   0.2892 H              1 <1>                0.0000
     39 H39          2.5218  -3.7857  -0.4885 H              1 <1>                0.0000
     40 H40          2.0751  -2.4165  -2.4868 H              1 <1>                0.0000
     41 H41          3.6034  -0.2312  -0.9987 H              1 <1>                0.0000
     42 H42          2.9512  -0.1202  -2.6520 H              1 <1>                0.0000
     43 H43          0.6585  -0.4576  -1.7720 H              1 <1>                0.0000
     44 H44          1.4269   0.9604  -1.0203 H              1 <1>                0.0000
     45 H45         -1.8175   2.8367   1.2909 H              1 <1>                0.0000
     46 H46         -3.6855   3.3945   2.7583 H              1 <1>                0.0000
@<TRIPOS>BOND
    1    1    2 1     
    2    1   28 1     
    3    2    3 1     
    4    2   29 1     
    5    2   30 1     
    6    3    8 1     
    7    3    4 1     
    8    3   31 1     
    9    4    5 1     
   10    5    6 1     
   11    5   19 1     
   12    5   32 1     
   13    6    7 1     
   14    6    8 1     
   15    6   33 1     
   16    7   34 1     
   17    8    9 1     
   18    8   35 1     
   19    9   10 1     
   20    9   15 1     
   21    9   11 1     
   22   11   12 1     
   23   11   36 1     
   24   11   37 1     
   25   12   13 1     
   26   12   38 1     
   27   12   39 1     
   28   13   14 1     
   29   13   16 1     
   30   13   40 1     
   31   14   15 1     
   32   14   41 1     
   33   14   42 1     
   34   15   43 1     
   35   15   44 1     
   36   16   17 ar    
   37   16   18 ar    
   38   19   26 1     
   39   19   20 1     
   40   20   21 2     
   41   20   45 1     
   42   21   22 1     
   43   21   46 1     
   44   22   23 2     
   45   22   24 1     
   46   24   25 1     
   47   24   26 1     
   48   26   27 2     
@<TRIPOS>SUBSTRUCTURE
      1 ****           1
@<TRIPOS>SET
DONOR_HYDROGENS      STATIC     ATOMS    <user>   **** ""
4 28 34 10 25
ATOM$RED        STATIC     ATOMS    COLORGROUP SYSTEM
4 28 34 10 25
