#       Name:                NBP
#       Creating user name   gbret
#       Creation time:       Fri Sep  9 12:58:44 2016


#       File generated by GOLD software.
#

@<TRIPOS>MOLECULE
NBP
    73    77     1
SMALL
NO_CHARGES


@<TRIPOS>ATOM
      1 N1           3.9290   7.3059  -5.6360 N.am           1 <1>                0.0000
      2 C2           3.9536   5.9603  -5.5644 C.2            1 <1>                0.0000
      3 O3           5.0171   5.3720  -5.5457 O.2            1 <1>                0.0000
      4 C4           2.6871   5.1997  -5.5085 C.ar           1 <1>                0.0000
      5 C5           1.4553   5.8651  -5.5351 C.ar           1 <1>                0.0000
      6 C6           0.2993   5.1069  -5.4809 C.ar           1 <1>                0.0000
      7 C7           0.3962   3.7290  -5.4029 C.ar           1 <1>                0.0000
      8 N8           1.5709   3.1291  -5.3795 N.pl3          1 <1>                0.0000
      9 C9           2.6990   3.8065  -5.4342 C.ar           1 <1>                0.0000
     10 C10          1.6220   1.6674  -5.2958 C.3            1 <1>                0.0000
     11 O11          0.4788   1.1651  -4.5701 O.3            1 <1>                0.0000
     12 C12          0.3568  -0.2192  -4.9631 C.3            1 <1>                0.0000
     13 C13         -1.0607  -0.7270  -4.6918 C.3            1 <1>                0.0000
     14 O14         -1.2958  -0.7530  -3.2825 O.3            1 <1>                0.0000
     15 P15         -2.6885  -1.2356  -2.6346 P.3            1 <1>                0.0000
     16 O16         -3.8128  -0.2579  -3.0432 O.co2          1 <1>                0.0000
     17 O17         -3.0292  -2.6540  -3.1437 O.co2          1 <1>                0.0000
     18 O18         -2.5544  -1.2591  -1.0303 O.3            1 <1>                0.0000
     19 P19         -3.3688  -1.9919   0.1494 P.3            1 <1>                0.0000
     20 O20         -4.7234  -1.2793   0.3599 O.co2          1 <1>                0.0000
     21 O21         -3.6174  -3.4673  -0.2359 O.co2          1 <1>                0.0000
     22 O22         -2.5125  -1.9299   1.5114 O.3            1 <1>                0.0000
     23 C23         -2.9177  -2.5832   2.7160 C.3            1 <1>                0.0000
     24 C24         -1.8819  -2.3219   3.8112 C.3            1 <1>                0.0000
     25 O25         -1.9212  -0.9373   4.2204 O.3            1 <1>                0.0000
     26 C26         -1.3113  -0.9099   5.5292 C.3            1 <1>                0.0000
     27 C27         -1.8500  -2.1700   6.2422 C.3            1 <1>                0.0000
     28 O28         -2.9991  -1.8479   7.0282 O.3            1 <1>                0.0000
     29 P29         -3.0624  -2.0712   8.6214 P.3            1 <1>                0.0000
     30 O30         -2.0225  -1.1321   9.3221 O.co2          1 <1>                0.0000
     31 O31         -4.5022  -1.7344   9.1391 O.co2          1 <1>                0.0000
     32 O32         -2.7242  -3.5645   8.9532 O.co2          1 <1>                0.0000
     33 C33         -2.2340  -3.1203   5.0860 C.3            1 <1>                0.0000
     34 O34         -3.6320  -3.4140   5.1226 O.3            1 <1>                0.0000
     35 N35          0.1477  -0.9739   5.4135 N.pl3          1 <1>                0.0000
     36 C36          0.9181  -0.2801   4.5276 C.2            1 <1>                0.0000
     37 Br37         0.2605   0.9347   3.2362 Br             1 <1>                0.0000
     38 N38          2.1741  -0.5774   4.7031 N.2            1 <1>                0.0000
     39 C39          2.2879  -1.4778   5.7094 C.ar           1 <1>                0.0000
     40 C40          3.3632  -2.1417   6.3240 C.ar           1 <1>                0.0000
     41 N41          4.6641  -1.9203   5.9063 N.pl3          1 <1>                0.0000
     42 N42          3.1021  -2.9868   7.3158 N.ar           1 <1>                0.0000
     43 C43          1.8641  -3.2039   7.7212 C.ar           1 <1>                0.0000
     44 N44          0.8268  -2.6049   7.1755 N.ar           1 <1>                0.0000
     45 C45          0.9906  -1.7388   6.1807 C.ar           1 <1>                0.0000
     46 C46          0.6495  -0.2262  -6.4799 C.3            1 <1>                0.0000
     47 O47         -0.5676  -0.1507  -7.2250 O.3            1 <1>                0.0000
     48 C48          1.5009   1.0435  -6.7038 C.3            1 <1>                0.0000
     49 O49          0.8357   1.9419  -7.5940 O.3            1 <1>                0.0000
     50 H50          4.7599   7.8047  -5.6766 H              1 <1>                0.0000
     51 H51          3.0802   7.7753  -5.6508 H              1 <1>                0.0000
     52 H52          1.4089   6.9423  -5.5960 H              1 <1>                0.0000
     53 H53         -0.6686   5.5857  -5.4990 H              1 <1>                0.0000
     54 H54         -0.5046   3.1347  -5.3601 H              1 <1>                0.0000
     55 H55          3.6415   3.2796  -5.4130 H              1 <1>                0.0000
     56 H56          2.5477   1.3476  -4.8173 H              1 <1>                0.0000
     57 H57          1.0862  -0.8303  -4.4314 H              1 <1>                0.0000
     58 H58         -1.7819  -0.0630  -5.1683 H              1 <1>                0.0000
     59 H59         -1.1701  -1.7330  -5.0970 H              1 <1>                0.0000
     60 H60         -3.8861  -2.1951   3.0317 H              1 <1>                0.0000
     61 H61         -2.9964  -3.6558   2.5388 H              1 <1>                0.0000
     62 H62         -0.8846  -2.5875   3.4605 H              1 <1>                0.0000
     63 H63         -1.6109  -0.0114   6.0687 H              1 <1>                0.0000
     64 H64         -1.0753  -2.6169   6.8653 H              1 <1>                0.0000
     65 H65         -1.6485  -4.0383   5.1356 H              1 <1>                0.0000
     66 H66         -3.9279  -4.0070   4.4184 H              1 <1>                0.0000
     67 H67          4.8419  -1.3008   5.1814 H              1 <1>                0.0000
     68 H68          5.3979  -2.3847   6.3385 H              1 <1>                0.0000
     69 H69          1.6965  -3.8991   8.5305 H              1 <1>                0.0000
     70 H70          1.2108  -1.1187  -6.7565 H              1 <1>                0.0000
     71 H71         -0.4424  -0.1517  -8.1838 H              1 <1>                0.0000
     72 H72          2.4853   0.7800  -7.0907 H              1 <1>                0.0000
     73 H73          0.6794   1.5778  -8.4761 H              1 <1>                0.0000
@<TRIPOS>BOND
    1    1    2 am    
    2    1   50 1     
    3    1   51 1     
    4    2    3 2     
    5    2    4 1     
    6    4    9 ar    
    7    4    5 ar    
    8    5    6 ar    
    9    5   52 1     
   10    6    7 ar    
   11    6   53 1     
   12    7    8 ar    
   13    7   54 1     
   14    8    9 ar    
   15    8   10 1     
   16    9   55 1     
   17   10   48 1     
   18   10   11 1     
   19   10   56 1     
   20   11   12 1     
   21   12   13 1     
   22   12   46 1     
   23   12   57 1     
   24   13   14 1     
   25   13   58 1     
   26   13   59 1     
   27   14   15 1     
   28   15   16 ar    
   29   15   17 ar    
   30   15   18 1     
   31   18   19 1     
   32   19   20 ar    
   33   19   21 ar    
   34   19   22 1     
   35   22   23 1     
   36   23   24 1     
   37   23   60 1     
   38   23   61 1     
   39   24   33 1     
   40   24   25 1     
   41   24   62 1     
   42   25   26 1     
   43   26   27 1     
   44   26   35 1     
   45   26   63 1     
   46   27   28 1     
   47   27   33 1     
   48   27   64 1     
   49   28   29 1     
   50   29   30 ar    
   51   29   31 ar    
   52   29   32 ar    
   53   33   34 1     
   54   33   65 1     
   55   34   66 1     
   56   35   45 1     
   57   35   36 1     
   58   36   37 1     
   59   36   38 2     
   60   38   39 1     
   61   39   45 ar    
   62   39   40 ar    
   63   40   41 1     
   64   40   42 ar    
   65   41   67 1     
   66   41   68 1     
   67   42   43 ar    
   68   43   44 ar    
   69   43   69 1     
   70   44   45 ar    
   71   46   47 1     
   72   46   48 1     
   73   46   70 1     
   74   47   71 1     
   75   48   49 1     
   76   48   72 1     
   77   49   73 1     
@<TRIPOS>SUBSTRUCTURE
      1 ****           1
@<TRIPOS>SET
DONOR_HYDROGENS      STATIC     ATOMS    <user>   **** ""
7 50 51 66 67 68 71 73
ATOM$RED        STATIC     ATOMS    COLORGROUP SYSTEM
7 50 51 66 67 68 71 73
