#       Name:                NFM
#       Creating user name   gbret
#       Creation time:       Fri Sep  9 13:05:36 2016


#       File generated by GOLD software.
#

@<TRIPOS>MOLECULE
NFM
    22    22     1
SMALL
NO_CHARGES


@<TRIPOS>ATOM
      1 C1           0.2784   3.9132  -0.2967 C.3            1 <1>                0.0000
      2 C2           0.2989   2.4063  -0.3050 C.ar           1 <1>                0.0000
      3 N3           0.3020   1.7721  -1.4602 N.ar           1 <1>                0.0000
      4 C4           0.3197   0.4477  -1.5121 C.ar           1 <1>                0.0000
      5 C5           0.3351  -0.2726  -0.3337 C.ar           1 <1>                0.0000
      6 C6           0.3560  -1.7794  -0.3497 C.3            1 <1>                0.0000
      7 N7          -0.9961  -2.2891  -0.1088 N.am           1 <1>                0.0000
      8 C8          -1.2201  -3.6178  -0.0790 C.2            1 <1>                0.0000
      9 O9          -0.3022  -4.3915  -0.2516 O.2            1 <1>                0.0000
     10 C10          0.3314   0.4303   0.8727 C.ar           1 <1>                0.0000
     11 N11          0.3464  -0.2464   2.0816 N.pl3          1 <1>                0.0000
     12 N12          0.3186   1.7598   0.8428 N.ar           1 <1>                0.0000
     13 H13          1.3010   4.2905  -0.3044 H              1 <1>                0.0000
     14 H14         -0.2487   4.2743  -1.1798 H              1 <1>                0.0000
     15 H15         -0.2318   4.2647   0.6001 H              1 <1>                0.0000
     16 H16          0.3217  -0.0620  -2.4642 H              1 <1>                0.0000
     17 H17          0.7079  -2.1276  -1.3208 H              1 <1>                0.0000
     18 H18          1.0253  -2.1418   0.4306 H              1 <1>                0.0000
     19 H19         -1.7303  -1.6703   0.0292 H              1 <1>                0.0000
     20 H20         -2.2169  -3.9935   0.0986 H              1 <1>                0.0000
     21 H21          0.3596  -1.2162   2.0944 H              1 <1>                0.0000
     22 H22          0.3436   0.2496   2.9151 H              1 <1>                0.0000
@<TRIPOS>BOND
    1    1    2 1     
    2    1   13 1     
    3    1   14 1     
    4    1   15 1     
    5    2   12 ar    
    6    2    3 ar    
    7    3    4 ar    
    8    4    5 ar    
    9    4   16 1     
   10    5    6 1     
   11    5   10 ar    
   12    6    7 1     
   13    6   17 1     
   14    6   18 1     
   15    7    8 am    
   16    7   19 1     
   17    8    9 2     
   18    8   20 1     
   19   10   11 1     
   20   10   12 ar    
   21   11   21 1     
   22   11   22 1     
@<TRIPOS>SUBSTRUCTURE
      1 ****           1
@<TRIPOS>SET
DONOR_HYDROGENS      STATIC     ATOMS    <user>   **** ""
3 19 21 22
ATOM$RED        STATIC     ATOMS    COLORGROUP SYSTEM
3 19 21 22
