#       Name:                NGO
#       Creating user name   gbret
#       Creation time:       Fri Sep  9 13:07:23 2016


#       File generated by GOLD software.
#

@<TRIPOS>MOLECULE
NGO
    27    28     1
SMALL
NO_CHARGES


@<TRIPOS>ATOM
      1 C1          -0.1401   4.3662   0.4641 C.3            1 <1>                0.0000
      2 C2          -0.1196   2.8593   0.4558 C.2            1 <1>                0.0000
      3 N3          -1.1990   2.1259   0.4571 N.2            1 <1>                0.0000
      4 C4          -0.7611   0.7389   0.4860 C.3            1 <1>                0.0000
      5 C5           0.6580   0.8883  -0.1438 C.3            1 <1>                0.0000
      6 O6           1.0298   2.1231   0.4404 O.3            1 <1>                0.0000
      7 O7           1.3491  -0.3024   0.1449 O.3            1 <1>                0.0000
      8 C8           0.7668  -1.4175  -0.5558 C.3            1 <1>                0.0000
      9 C9           1.5185  -2.6932  -0.1704 C.3            1 <1>                0.0000
     10 O10          2.8674  -2.6100  -0.6346 O.3            1 <1>                0.0000
     11 C11         -0.7124  -1.5962  -0.2276 C.3            1 <1>                0.0000
     12 O12         -0.8399  -2.0581   1.1187 O.3            1 <1>                0.0000
     13 C13         -1.4878  -0.2715  -0.3821 C.3            1 <1>                0.0000
     14 O14         -2.8334  -0.4327   0.0711 O.3            1 <1>                0.0000
     15 H15          0.8825   4.7435   0.4564 H              1 <1>                0.0000
     16 H16         -0.6672   4.7273  -0.4190 H              1 <1>                0.0000
     17 H17         -0.6503   4.7177   1.3609 H              1 <1>                0.0000
     18 H18         -0.7013   0.3814   1.5140 H              1 <1>                0.0000
     19 H19          0.5704   1.0081  -1.2236 H              1 <1>                0.0000
     20 H20          0.8727  -1.2555  -1.6285 H              1 <1>                0.0000
     21 H21          1.5136  -2.8043   0.9139 H              1 <1>                0.0000
     22 H22          1.0299  -3.5545  -0.6260 H              1 <1>                0.0000
     23 H23          3.4042  -3.3865  -0.4249 H              1 <1>                0.0000
     24 H24         -1.1398  -2.3390  -0.9011 H              1 <1>                0.0000
     25 H25         -0.4025  -2.9038   1.2875 H              1 <1>                0.0000
     26 H26         -1.4768   0.0510  -1.4232 H              1 <1>                0.0000
     27 H27         -3.3327  -1.1062  -0.4108 H              1 <1>                0.0000
@<TRIPOS>BOND
    1    1    2 1     
    2    1   15 1     
    3    1   16 1     
    4    1   17 1     
    5    2    6 1     
    6    2    3 2     
    7    3    4 1     
    8    4   13 1     
    9    4    5 1     
   10    4   18 1     
   11    5    6 1     
   12    5    7 1     
   13    5   19 1     
   14    7    8 1     
   15    8    9 1     
   16    8   11 1     
   17    8   20 1     
   18    9   10 1     
   19    9   21 1     
   20    9   22 1     
   21   10   23 1     
   22   11   12 1     
   23   11   13 1     
   24   11   24 1     
   25   12   25 1     
   26   13   14 1     
   27   13   26 1     
   28   14   27 1     
@<TRIPOS>SUBSTRUCTURE
      1 ****           1
@<TRIPOS>SET
DONOR_HYDROGENS      STATIC     ATOMS    <user>   **** ""
3 23 25 27
ATOM$RED        STATIC     ATOMS    COLORGROUP SYSTEM
3 23 25 27
