#       Name:                NGP
#       Creating user name   gbret
#       Creation time:       Fri Sep  9 13:07:27 2016


#       File generated by GOLD software.
#

@<TRIPOS>MOLECULE
NGP
   106   112     1
SMALL
NO_CHARGES


@<TRIPOS>ATOM
      1 C1          -0.0884   8.7678   2.4073 C.3            1 <1>                0.0000
      2 O2          -0.0109   7.3516   2.2335 O.3            1 <1>                0.0000
      3 C3          -1.2098   6.7618   1.7266 C.3            1 <1>                0.0000
      4 C4          -0.9698   6.2608   0.3000 C.3            1 <1>                0.0000
      5 C5          -0.5080   7.4250  -0.5787 C.3            1 <1>                0.0000
      6 O6           0.0371   5.2468   0.3157 O.3            1 <1>                0.0000
      7 C7          -0.3055   4.0963   1.0909 C.3            1 <1>                0.0000
      8 O8           0.7533   3.1394   1.0171 O.3            1 <1>                0.0000
      9 C9           0.9608   2.6019  -0.2905 C.3            1 <1>                0.0000
     10 C10          1.9991   3.4481  -1.0400 C.3            1 <1>                0.0000
     11 C11          2.2479   2.9016  -2.4435 C.3            1 <1>                0.0000
     12 C12          0.9357   2.9158  -3.2302 C.3            1 <1>                0.0000
     13 O13          3.2046   3.7290  -3.1084 O.3            1 <1>                0.0000
     14 C14          2.7836   1.4614  -2.3770 C.3            1 <1>                0.0000
     15 C15          4.1236   1.4385  -1.6879 C.2            1 <1>                0.0000
     16 O16          4.6132   2.4669  -1.2847 O.2            1 <1>                0.0000
     17 O17          4.7732   0.2756  -1.5220 O.3            1 <1>                0.0000
     18 C18          6.0591   0.3290  -0.8497 C.3            1 <1>                0.0000
     19 C19          1.7689   0.6688  -1.5717 C.2            1 <1>                0.0000
     20 C20          1.1777  -0.3728  -2.0622 C.2            1 <1>                0.0000
     21 C21          0.0761  -1.0931  -1.3589 C.3            1 <1>                0.0000
     22 C22          0.1617  -2.5852  -1.5866 C.2            1 <1>                0.0000
     23 O23          0.9611  -3.0685  -2.3604 O.2            1 <1>                0.0000
     24 C24         -0.7773  -3.4211  -0.8180 C.ar           1 <1>                0.0000
     25 C25         -1.2536  -4.6333  -1.3179 C.ar           1 <1>                0.0000
     26 O26         -0.8507  -5.0662  -2.5376 O.3            1 <1>                0.0000
     27 C27         -1.1716  -6.3978  -2.9220 C.3            1 <1>                0.0000
     28 O28         -2.4997  -6.7209  -2.5069 O.3            1 <1>                0.0000
     29 C29         -2.6646  -6.6997  -1.0827 C.3            1 <1>                0.0000
     30 C30         -4.1316  -6.9150  -0.7053 C.3            1 <1>                0.0000
     31 C31         -1.7822  -7.8099  -0.4881 C.3            1 <1>                0.0000
     32 O32         -2.1450  -9.0707  -1.0544 O.3            1 <1>                0.0000
     33 C33         -0.3224  -7.4885  -0.8305 C.3            1 <1>                0.0000
     34 C34         -0.1731  -7.3977  -2.3507 C.3            1 <1>                0.0000
     35 O35         -0.4095  -8.6839  -2.9269 O.3            1 <1>                0.0000
     36 N36          0.0536  -6.2052  -0.2225 N.4            1 <1>                0.0000
     37 H37         -0.7622  -5.6161  -0.1488 H              1 <1>                0.0000
     38 C38          0.6093  -6.4420   1.1166 C.3            1 <1>                0.0000
     39 C39          1.0618  -5.5429  -1.0609 C.3            1 <1>                0.0000
     40 C40         -2.1544  -5.3760  -0.5608 C.ar           1 <1>                0.0000
     41 C41         -2.5932  -4.9121   0.6618 C.ar           1 <1>                0.0000
     42 C42         -2.1258  -3.7053   1.1762 C.ar           1 <1>                0.0000
     43 O43         -2.5671  -3.2604   2.3800 O.co2          1 <1>                0.0000
     44 C44         -1.2030  -2.9580   0.4491 C.ar           1 <1>                0.0000
     45 C45         -0.6355  -1.7054   0.9878 C.2            1 <1>                0.0000
     46 O46         -0.7575  -1.4352   2.1691 O.2            1 <1>                0.0000
     47 C47          0.0555  -0.8165   0.1171 C.2            1 <1>                0.0000
     48 C48          0.6844   0.2524   0.6348 C.2            1 <1>                0.0000
     49 O49          0.5707   0.4891   1.9567 O.co2          1 <1>                0.0000
     50 C50          1.4962   1.1815  -0.1831 C.3            1 <1>                0.0000
     51 C51         -0.5187   4.5103   2.5493 C.3            1 <1>                0.0000
     52 O52          0.6984   5.0405   3.0780 O.3            1 <1>                0.0000
     53 C53          1.5444   4.0610   3.6837 C.3            1 <1>                0.0000
     54 C54         -1.6134   5.5798   2.6134 C.3            1 <1>                0.0000
     55 C55         -1.7791   6.0567   4.0577 C.3            1 <1>                0.0000
     56 O56         -2.8466   5.0302   2.1452 O.3            1 <1>                0.0000
     57 C57         -3.3083   3.9098   2.9025 C.3            1 <1>                0.0000
     58 H58          0.8278   9.1270   2.8760 H              1 <1>                0.0000
     59 H59         -0.2115   9.2469   1.4360 H              1 <1>                0.0000
     60 H60         -0.9405   9.0099   3.0424 H              1 <1>                0.0000
     61 H61         -2.0079   7.5041   1.7235 H              1 <1>                0.0000
     62 H62         -1.8955   5.8478  -0.1007 H              1 <1>                0.0000
     63 H63          0.4636   7.7780  -0.2330 H              1 <1>                0.0000
     64 H64         -0.4258   7.0895  -1.6126 H              1 <1>                0.0000
     65 H65         -1.2327   8.2368  -0.5167 H              1 <1>                0.0000
     66 H66         -1.2223   3.6547   0.7004 H              1 <1>                0.0000
     67 H67          0.0201   2.5999  -0.8411 H              1 <1>                0.0000
     68 H68          1.6372   4.4736  -1.1149 H              1 <1>                0.0000
     69 H69          2.9357   3.4407  -0.4825 H              1 <1>                0.0000
     70 H70          0.5631   3.9380  -3.2969 H              1 <1>                0.0000
     71 H71          1.1093   2.5262  -4.2333 H              1 <1>                0.0000
     72 H72          0.2000   2.2934  -2.7209 H              1 <1>                0.0000
     73 H73          2.9286   4.6508  -3.2038 H              1 <1>                0.0000
     74 H74          2.8724   1.0480  -3.3817 H              1 <1>                0.0000
     75 H75          6.4753  -0.6761  -0.7813 H              1 <1>                0.0000
     76 H76          6.7388   0.9660  -1.4156 H              1 <1>                0.0000
     77 H77          5.9284   0.7370   0.1526 H              1 <1>                0.0000
     78 H78          1.4967  -0.7380  -3.0272 H              1 <1>                0.0000
     79 H79         -0.8710  -0.7539  -1.7786 H              1 <1>                0.0000
     80 H80         -1.1361  -6.4596  -4.0096 H              1 <1>                0.0000
     81 H81         -4.4664  -7.8805  -1.0846 H              1 <1>                0.0000
     82 H82         -4.2344  -6.8953   0.3796 H              1 <1>                0.0000
     83 H83         -4.7392  -6.1225  -1.1423 H              1 <1>                0.0000
     84 H84         -1.9093  -7.8417   0.5940 H              1 <1>                0.0000
     85 H85         -3.0644  -9.3240  -0.8940 H              1 <1>                0.0000
     86 H86          0.3241  -8.2780  -0.4473 H              1 <1>                0.0000
     87 H87          0.8393  -7.0763  -2.5952 H              1 <1>                0.0000
     88 H88         -0.3319  -8.7034  -3.8905 H              1 <1>                0.0000
     89 H89          1.4905  -7.0785   1.0370 H              1 <1>                0.0000
     90 H90          0.8883  -5.4898   1.5678 H              1 <1>                0.0000
     91 H91         -0.1388  -6.9334   1.7387 H              1 <1>                0.0000
     92 H92          1.9431  -6.1794  -1.1405 H              1 <1>                0.0000
     93 H93          0.6496  -5.3673  -2.0545 H              1 <1>                0.0000
     94 H94          1.3409  -4.5907  -0.6097 H              1 <1>                0.0000
     95 H95         -3.3083  -5.4916   1.2268 H              1 <1>                0.0000
     96 H96          2.4698   1.2541   0.3017 H              1 <1>                0.0000
     97 H97         -0.8220   3.6418   3.1339 H              1 <1>                0.0000
     98 H98          1.0156   3.5847   4.5093 H              1 <1>                0.0000
     99 H99          1.8161   3.3081   2.9438 H              1 <1>                0.0000
    100 H100         2.4467   4.5429   4.0600 H              1 <1>                0.0000
    101 H101        -0.8207   6.4140   4.4345 H              1 <1>                0.0000
    102 H102        -2.5076   6.8668   4.0916 H              1 <1>                0.0000
    103 H103        -2.1269   5.2292   4.6760 H              1 <1>                0.0000
    104 H104        -3.4630   4.2105   3.9387 H              1 <1>                0.0000
    105 H105        -4.2486   3.5510   2.4841 H              1 <1>                0.0000
    106 H106        -2.5654   3.1132   2.8624 H              1 <1>                0.0000
@<TRIPOS>BOND
    1    1    2 1     
    2    1   58 1     
    3    1   59 1     
    4    1   60 1     
    5    2    3 1     
    6    3   54 1     
    7    3    4 1     
    8    3   61 1     
    9    4    5 1     
   10    4    6 1     
   11    4   62 1     
   12    5   63 1     
   13    5   64 1     
   14    5   65 1     
   15    6    7 1     
   16    7    8 1     
   17    7   51 1     
   18    7   66 1     
   19    8    9 1     
   20    9   50 1     
   21    9   10 1     
   22    9   67 1     
   23   10   11 1     
   24   10   68 1     
   25   10   69 1     
   26   11   12 1     
   27   11   13 1     
   28   11   14 1     
   29   12   70 1     
   30   12   71 1     
   31   12   72 1     
   32   13   73 1     
   33   14   15 1     
   34   14   19 1     
   35   14   74 1     
   36   15   16 2     
   37   15   17 1     
   38   17   18 1     
   39   18   75 1     
   40   18   76 1     
   41   18   77 1     
   42   19   50 1     
   43   19   20 2     
   44   20   21 1     
   45   20   78 1     
   46   21   47 1     
   47   21   22 1     
   48   21   79 1     
   49   22   23 2     
   50   22   24 1     
   51   24   44 ar    
   52   24   25 ar    
   53   25   40 ar    
   54   25   26 1     
   55   26   27 1     
   56   27   34 1     
   57   27   28 1     
   58   27   80 1     
   59   28   29 1     
   60   29   30 1     
   61   29   31 1     
   62   29   40 1     
   63   30   81 1     
   64   30   82 1     
   65   30   83 1     
   66   31   32 1     
   67   31   33 1     
   68   31   84 1     
   69   32   85 1     
   70   33   34 1     
   71   33   36 1     
   72   33   86 1     
   73   34   35 1     
   74   34   87 1     
   75   35   88 1     
   76   36   37 1     
   77   36   38 1     
   78   36   39 1     
   79   38   89 1     
   80   38   90 1     
   81   38   91 1     
   82   39   92 1     
   83   39   93 1     
   84   39   94 1     
   85   40   41 ar    
   86   41   42 ar    
   87   41   95 1     
   88   42   43 ar    
   89   42   44 ar    
   90   44   45 1     
   91   45   46 2     
   92   45   47 1     
   93   47   48 2     
   94   48   49 ar    
   95   48   50 1     
   96   50   96 1     
   97   51   52 1     
   98   51   54 1     
   99   51   97 1     
  100   52   53 1     
  101   53   98 1     
  102   53   99 1     
  103   53  100 1     
  104   54   55 1     
  105   54   56 1     
  106   55  101 1     
  107   55  102 1     
  108   55  103 1     
  109   56   57 1     
  110   57  104 1     
  111   57  105 1     
  112   57  106 1     
@<TRIPOS>SUBSTRUCTURE
      1 ****           1
@<TRIPOS>SET
DONOR_HYDROGENS      STATIC     ATOMS    <user>   **** ""
4 73 85 88 37
ATOM$RED        STATIC     ATOMS    COLORGROUP SYSTEM
4 73 85 88 37
