#       Name:                NK7
#       Creating user name   gbret
#       Creation time:       Fri Sep  9 13:12:39 2016


#       File generated by GOLD software.
#

@<TRIPOS>MOLECULE
NK7
    68    71     1
SMALL
NO_CHARGES


@<TRIPOS>ATOM
      1 N1           7.2087   3.9467  -0.8626 N.am           1 <1>                0.0000
      2 C2           6.8750   2.6426  -0.9284 C.2            1 <1>                0.0000
      3 O3           7.7127   1.8154  -1.2310 O.2            1 <1>                0.0000
      4 C4           5.4900   2.2181  -0.6325 C.ar           1 <1>                0.0000
      5 C5           4.5244   3.1660  -0.2905 C.ar           1 <1>                0.0000
      6 C6           3.2337   2.7633  -0.0160 C.ar           1 <1>                0.0000
      7 C7           2.8958   1.4231  -0.0789 C.ar           1 <1>                0.0000
      8 C8           3.8484   0.4783  -0.4169 C.ar           1 <1>                0.0000
      9 C9           5.1411   0.8683  -0.6998 C.ar           1 <1>                0.0000
     10 S10          1.2452   0.9172   0.2737 S.o2           1 <1>                0.0000
     11 O11          1.3192  -0.4452   0.6706 O.2            1 <1>                0.0000
     12 O12          0.6792   1.9345   1.0885 O.2            1 <1>                0.0000
     13 N13          0.4088   0.9433  -1.1553 N.pl3          1 <1>                0.0000
     14 C14          0.7365  -0.0154  -2.2135 C.3            1 <1>                0.0000
     15 C15         -0.2934  -1.1154  -2.2315 C.ar           1 <1>                0.0000
     16 C16         -0.2170  -2.1488  -1.3165 C.ar           1 <1>                0.0000
     17 C17         -1.1618  -3.1578  -1.3330 C.ar           1 <1>                0.0000
     18 C18         -2.1832  -3.1331  -2.2641 C.ar           1 <1>                0.0000
     19 C19         -2.2601  -2.0992  -3.1785 C.ar           1 <1>                0.0000
     20 C20         -1.3178  -1.0880  -3.1592 C.ar           1 <1>                0.0000
     21 C21         -3.2126  -4.2336  -2.2827 C.3            1 <1>                0.0000
     22 F22         -4.3300  -3.8396  -1.5389 F              1 <1>                0.0000
     23 F23         -3.5979  -4.4895  -3.6030 F              1 <1>                0.0000
     24 F24         -2.6654  -5.3934  -1.7235 F              1 <1>                0.0000
     25 C25         -0.6590   1.9249  -1.3613 C.3            1 <1>                0.0000
     26 C26         -1.1532   1.8791  -2.8190 C.3            1 <1>                0.0000
     27 N27         -2.5924   1.5406  -2.7788 N.3            1 <1>                0.0000
     28 C28         -2.7994   0.8027  -1.5064 C.3            1 <1>                0.0000
     29 C29         -1.8938   1.5623  -0.5047 C.3            1 <1>                0.0000
     30 N30         -1.5122   0.6912   0.6149 N.4            1 <1>                0.0000
     31 H31         -1.1071  -0.1602   0.2556 H              1 <1>                0.0000
     32 H32         -0.8372   1.1659   1.1955 H              1 <1>                0.0000
     33 C33         -2.7030   0.3685   1.4123 C.3            1 <1>                0.0000
     34 C34         -2.2940  -0.4207   2.6292 C.ar           1 <1>                0.0000
     35 C35         -2.1387  -1.7917   2.5437 C.ar           1 <1>                0.0000
     36 C36         -1.7635  -2.5157   3.6600 C.ar           1 <1>                0.0000
     37 C37         -1.5432  -1.8686   4.8615 C.ar           1 <1>                0.0000
     38 C38         -1.6976  -0.4976   4.9467 C.ar           1 <1>                0.0000
     39 C39         -2.0686   0.2269   3.8294 C.ar           1 <1>                0.0000
     40 C40         -1.1351  -2.6580   6.0786 C.3            1 <1>                0.0000
     41 F41          0.2603  -2.7399   6.1351 F              1 <1>                0.0000
     42 F42         -1.6118  -2.0207   7.2292 F              1 <1>                0.0000
     43 F43         -1.6751  -3.9463   6.0015 F              1 <1>                0.0000
     44 H44          8.1164   4.2256  -1.0606 H              1 <1>                0.0000
     45 H45          6.5403   4.6068  -0.6211 H              1 <1>                0.0000
     46 H46          4.7870   4.2124  -0.2403 H              1 <1>                0.0000
     47 H47          2.4856   3.4958   0.2488 H              1 <1>                0.0000
     48 H48          3.5783  -0.5663  -0.4639 H              1 <1>                0.0000
     49 H49          5.8837   0.1299  -0.9638 H              1 <1>                0.0000
     50 H50          0.7406   0.4943  -3.1770 H              1 <1>                0.0000
     51 H51          1.7213  -0.4428  -2.0243 H              1 <1>                0.0000
     52 H52          0.5810  -2.1681  -0.5891 H              1 <1>                0.0000
     53 H53         -1.1016  -3.9655  -0.6186 H              1 <1>                0.0000
     54 H54         -3.0579  -2.0801  -3.9061 H              1 <1>                0.0000
     55 H55         -1.3779  -0.2802  -3.8736 H              1 <1>                0.0000
     56 H56         -0.3057   2.9253  -1.1113 H              1 <1>                0.0000
     57 H57         -1.0138   2.8526  -3.2891 H              1 <1>                0.0000
     58 H58         -0.6074   1.1150  -3.3723 H              1 <1>                0.0000
     59 H59         -3.1609   2.3736  -2.8102 H              1 <1>                0.0000
     60 H60         -3.8433   0.8545  -1.1971 H              1 <1>                0.0000
     61 H61         -2.4776  -0.2340  -1.6062 H              1 <1>                0.0000
     62 H62         -2.3899   2.4627  -0.1425 H              1 <1>                0.0000
     63 H63         -3.1918   1.2912   1.7250 H              1 <1>                0.0000
     64 H64         -3.3936  -0.2227   0.8110 H              1 <1>                0.0000
     65 H65         -2.3108  -2.2972   1.6050 H              1 <1>                0.0000
     66 H66         -1.6429  -3.5868   3.5934 H              1 <1>                0.0000
     67 H67         -1.5258   0.0079   5.8855 H              1 <1>                0.0000
     68 H68         -2.1893   1.2981   3.8960 H              1 <1>                0.0000
@<TRIPOS>BOND
    1    1    2 am    
    2    1   44 1     
    3    1   45 1     
    4    2    3 2     
    5    2    4 1     
    6    4    9 ar    
    7    4    5 ar    
    8    5    6 ar    
    9    5   46 1     
   10    6    7 ar    
   11    6   47 1     
   12    7    8 ar    
   13    7   10 1     
   14    8    9 ar    
   15    8   48 1     
   16    9   49 1     
   17   10   11 2     
   18   10   12 2     
   19   10   13 1     
   20   13   14 1     
   21   13   25 1     
   22   14   15 1     
   23   14   50 1     
   24   14   51 1     
   25   15   20 ar    
   26   15   16 ar    
   27   16   17 ar    
   28   16   52 1     
   29   17   18 ar    
   30   17   53 1     
   31   18   19 ar    
   32   18   21 1     
   33   19   20 ar    
   34   19   54 1     
   35   20   55 1     
   36   21   22 1     
   37   21   23 1     
   38   21   24 1     
   39   25   29 1     
   40   25   26 1     
   41   25   56 1     
   42   26   27 1     
   43   26   57 1     
   44   26   58 1     
   45   27   28 1     
   46   27   59 1     
   47   28   29 1     
   48   28   60 1     
   49   28   61 1     
   50   29   30 1     
   51   29   62 1     
   52   30   31 1     
   53   30   32 1     
   54   30   33 1     
   55   33   34 1     
   56   33   63 1     
   57   33   64 1     
   58   34   39 ar    
   59   34   35 ar    
   60   35   36 ar    
   61   35   65 1     
   62   36   37 ar    
   63   36   66 1     
   64   37   38 ar    
   65   37   40 1     
   66   38   39 ar    
   67   38   67 1     
   68   39   68 1     
   69   40   41 1     
   70   40   42 1     
   71   40   43 1     
@<TRIPOS>SUBSTRUCTURE
      1 ****           1
@<TRIPOS>SET
DONOR_HYDROGENS      STATIC     ATOMS    <user>   **** ""
5 44 45 59 31 32
ATOM$RED        STATIC     ATOMS    COLORGROUP SYSTEM
5 44 45 59 31 32
