#       Name:                NMD
#       Creating user name   gbret
#       Creation time:       Fri Sep  9 13:15:39 2016


#       File generated by GOLD software.
#

@<TRIPOS>MOLECULE
NMD
    72    77     1
SMALL
NO_CHARGES


@<TRIPOS>ATOM
      1 C1          -0.0601   4.2680  -2.0958 C.3            1 <1>                0.0000
      2 O2          -0.0407   2.8391  -2.1037 O.3            1 <1>                0.0000
      3 C3          -1.2431   2.2057  -2.0956 C.ar           1 <1>                0.0000
      4 C4          -2.4162   2.9463  -2.0862 C.ar           1 <1>                0.0000
      5 C5          -3.6462   2.3048  -2.0784 C.ar           1 <1>                0.0000
      6 O6          -4.7924   3.0351  -2.0692 O.3            1 <1>                0.0000
      7 C7          -4.6554   4.4575  -2.0682 C.3            1 <1>                0.0000
      8 C8          -3.7078   0.9211  -2.0804 C.ar           1 <1>                0.0000
      9 C9          -2.5306   0.1724  -2.0898 C.ar           1 <1>                0.0000
     10 C10         -1.2957   0.8216  -2.1025 C.ar           1 <1>                0.0000
     11 C11         -2.5915  -1.3050  -2.0915 C.2            1 <1>                0.0000
     12 O12         -3.6683  -1.8689  -2.0847 O.2            1 <1>                0.0000
     13 N13         -1.4531  -2.0264  -2.1006 N.am           1 <1>                0.0000
     14 C14         -1.5135  -3.4902  -2.1023 C.3            1 <1>                0.0000
     15 C15         -1.5370  -4.0294  -3.5501 C.3            1 <1>                0.0000
     16 O16         -1.4934  -2.9511  -4.4868 O.3            1 <1>                0.0000
     17 C17         -0.2563  -4.8871  -3.6520 C.3            1 <1>                0.0000
     18 C18          0.3745  -4.7398  -5.0382 C.3            1 <1>                0.0000
     19 O19          1.4886  -5.6275  -5.1514 O.3            1 <1>                0.0000
     20 O20          0.6255  -4.3554  -2.6393 O.3            1 <1>                0.0000
     21 C21         -0.2213  -4.0859  -1.5009 C.3            1 <1>                0.0000
     22 N22          0.4188  -3.1176  -0.6070 N.pl3          1 <1>                0.0000
     23 C23          1.3698  -2.2050  -0.9547 C.2            1 <1>                0.0000
     24 N24          1.7164  -1.5056   0.0867 N.2            1 <1>                0.0000
     25 C25          1.0120  -1.9238   1.1655 C.ar           1 <1>                0.0000
     26 C26          0.9641  -1.5510   2.5198 C.ar           1 <1>                0.0000
     27 N27          1.7687  -0.5342   3.0031 N.pl3          1 <1>                0.0000
     28 C28          1.7051  -0.1594   4.4179 C.3            1 <1>                0.0000
     29 C29          2.6728   0.9648   4.6838 C.ar           1 <1>                0.0000
     30 C30          3.8887   0.7043   5.2377 C.ar           1 <1>                0.0000
     31 C31          4.7967   1.7305   5.4904 C.ar           1 <1>                0.0000
     32 C32          4.4940   3.0236   5.1911 C.ar           1 <1>                0.0000
     33 C33          3.2485   3.3313   4.6183 C.ar           1 <1>                0.0000
     34 C34          2.9006   4.6541   4.2952 C.ar           1 <1>                0.0000
     35 C35          1.6851   4.9144   3.7411 C.ar           1 <1>                0.0000
     36 C36          0.7768   3.8879   3.4885 C.ar           1 <1>                0.0000
     37 C37          1.0789   2.5953   3.7885 C.ar           1 <1>                0.0000
     38 C38          2.3271   2.2866   4.3560 C.ar           1 <1>                0.0000
     39 N39          0.1279  -2.1975   3.3253 N.ar           1 <1>                0.0000
     40 C40         -0.6440  -3.1689   2.8727 C.ar           1 <1>                0.0000
     41 N41         -0.6330  -3.5515   1.6134 N.ar           1 <1>                0.0000
     42 C42          0.1667  -2.9590   0.7323 C.ar           1 <1>                0.0000
     43 H43          0.9625   4.6453  -2.1036 H              1 <1>                0.0000
     44 H44         -0.5873   4.6291  -2.9789 H              1 <1>                0.0000
     45 H45         -0.5703   4.6195  -1.1990 H              1 <1>                0.0000
     46 H46         -2.3717   4.0254  -2.0846 H              1 <1>                0.0000
     47 H47         -4.1028   4.7686  -1.1816 H              1 <1>                0.0000
     48 H48         -4.1154   4.7711  -2.9616 H              1 <1>                0.0000
     49 H49         -5.6434   4.9177  -2.0605 H              1 <1>                0.0000
     50 H50         -4.6657   0.4224  -2.0743 H              1 <1>                0.0000
     51 H51         -0.3821   0.2458  -2.1099 H              1 <1>                0.0000
     52 H52         -0.5938  -1.5765  -2.1061 H              1 <1>                0.0000
     53 H53         -2.3869  -3.8361  -1.5495 H              1 <1>                0.0000
     54 H54         -2.4235  -4.6418  -3.7152 H              1 <1>                0.0000
     55 H55         -1.5058  -3.2329  -5.4117 H              1 <1>                0.0000
     56 H56         -0.4832  -5.9336  -3.4485 H              1 <1>                0.0000
     57 H57         -0.3642  -4.9847  -5.8014 H              1 <1>                0.0000
     58 H58          0.7127  -3.7128  -5.1762 H              1 <1>                0.0000
     59 H59          1.9380  -5.5876  -6.0067 H              1 <1>                0.0000
     60 H60         -0.4425  -5.0092  -0.9655 H              1 <1>                0.0000
     61 H61          1.7761  -2.0810  -1.9476 H              1 <1>                0.0000
     62 H62          2.3749  -0.0695   2.4051 H              1 <1>                0.0000
     63 H63          0.6940   0.1661   4.6625 H              1 <1>                0.0000
     64 H64          1.9689  -1.0192   5.0338 H              1 <1>                0.0000
     65 H65          4.1535  -0.3131   5.4853 H              1 <1>                0.0000
     66 H66          5.7547   1.4967   5.9306 H              1 <1>                0.0000
     67 H67          5.2074   3.8088   5.3932 H              1 <1>                0.0000
     68 H68          3.5940   5.4599   4.4859 H              1 <1>                0.0000
     69 H69          1.4202   5.9318   3.4937 H              1 <1>                0.0000
     70 H70         -0.1813   4.1218   3.0484 H              1 <1>                0.0000
     71 H71          0.3650   1.8102   3.5874 H              1 <1>                0.0000
     72 H72         -1.3089  -3.6682   3.5618 H              1 <1>                0.0000
@<TRIPOS>BOND
    1    1    2 1     
    2    1   43 1     
    3    1   44 1     
    4    1   45 1     
    5    2    3 1     
    6    3   10 ar    
    7    3    4 ar    
    8    4    5 ar    
    9    4   46 1     
   10    5    6 1     
   11    5    8 ar    
   12    6    7 1     
   13    7   47 1     
   14    7   48 1     
   15    7   49 1     
   16    8    9 ar    
   17    8   50 1     
   18    9   10 ar    
   19    9   11 1     
   20   10   51 1     
   21   11   12 2     
   22   11   13 am    
   23   13   14 1     
   24   13   52 1     
   25   14   21 1     
   26   14   15 1     
   27   14   53 1     
   28   15   16 1     
   29   15   17 1     
   30   15   54 1     
   31   16   55 1     
   32   17   18 1     
   33   17   20 1     
   34   17   56 1     
   35   18   19 1     
   36   18   57 1     
   37   18   58 1     
   38   19   59 1     
   39   20   21 1     
   40   21   22 1     
   41   21   60 1     
   42   22   42 1     
   43   22   23 1     
   44   23   24 2     
   45   23   61 1     
   46   24   25 1     
   47   25   42 ar    
   48   25   26 ar    
   49   26   27 1     
   50   26   39 ar    
   51   27   28 1     
   52   27   62 1     
   53   28   29 1     
   54   28   63 1     
   55   28   64 1     
   56   29   38 ar    
   57   29   30 ar    
   58   30   31 ar    
   59   30   65 1     
   60   31   32 ar    
   61   31   66 1     
   62   32   33 ar    
   63   32   67 1     
   64   33   38 ar    
   65   33   34 ar    
   66   34   35 ar    
   67   34   68 1     
   68   35   36 ar    
   69   35   69 1     
   70   36   37 ar    
   71   36   70 1     
   72   37   38 ar    
   73   37   71 1     
   74   39   40 ar    
   75   40   41 ar    
   76   40   72 1     
   77   41   42 ar    
@<TRIPOS>SUBSTRUCTURE
      1 ****           1
@<TRIPOS>SET
DONOR_HYDROGENS      STATIC     ATOMS    <user>   **** ""
4 52 55 59 62
ATOM$RED        STATIC     ATOMS    COLORGROUP SYSTEM
4 52 55 59 62
