#       Name:                NPG
#       Creating user name   gbret
#       Creation time:       Fri Sep  9 13:21:03 2016


#       File generated by GOLD software.
#

@<TRIPOS>MOLECULE
NPG
    29    29     1
SMALL
NO_CHARGES


@<TRIPOS>ATOM
      1 O1           5.2826  -0.9271  -0.3353 O.co2          1 <1>                0.0000
      2 C2           5.2660   0.2920  -0.3286 C.2            1 <1>                0.0000
      3 O3           6.3135   0.9159  -0.3352 O.co2          1 <1>                0.0000
      4 C4           3.9509   1.0277  -0.3183 C.3            1 <1>                0.0000
      5 C5           2.8015   0.0178  -0.3184 C.3            1 <1>                0.0000
      6 C6           1.4864   0.7534  -0.3081 C.2            1 <1>                0.0000
      7 O7           1.4699   1.9661  -0.3015 O.2            1 <1>                0.0000
      8 N8           0.3284   0.0638  -0.3064 N.am           1 <1>                0.0000
      9 C9          -0.9501   0.7790  -0.2965 C.3            1 <1>                0.0000
     10 C10         -1.3348   1.1399  -1.7081 C.2            1 <1>                0.0000
     11 O11         -0.9834   0.4312  -2.6359 O.co2          1 <1>                0.0000
     12 O12         -1.9973   2.1407  -1.9224 O.co2          1 <1>                0.0000
     13 C13         -2.0143  -0.1029   0.3043 C.ar           1 <1>                0.0000
     14 C14         -2.0411  -1.4530   0.0087 C.ar           1 <1>                0.0000
     15 C15         -3.0173  -2.2619   0.5598 C.ar           1 <1>                0.0000
     16 C16         -3.9664  -1.7208   1.4067 C.ar           1 <1>                0.0000
     17 C17         -3.9390  -0.3708   1.7030 C.ar           1 <1>                0.0000
     18 C18         -2.9603   0.4373   1.1553 C.ar           1 <1>                0.0000
     19 H19          3.8888   1.6487   0.5753 H              1 <1>                0.0000
     20 H20          3.8804   1.6583  -1.2046 H              1 <1>                0.0000
     21 H21          2.8636  -0.6032  -1.2121 H              1 <1>                0.0000
     22 H22          2.8720  -0.6129   0.5679 H              1 <1>                0.0000
     23 H23          0.3416  -0.9061  -0.3117 H              1 <1>                0.0000
     24 H24         -0.8534   1.6878   0.2975 H              1 <1>                0.0000
     25 H25         -1.2997  -1.8758  -0.6530 H              1 <1>                0.0000
     26 H26         -3.0387  -3.3166   0.3283 H              1 <1>                0.0000
     27 H27         -4.7295  -2.3526   1.8367 H              1 <1>                0.0000
     28 H28         -4.6807   0.0520   2.3644 H              1 <1>                0.0000
     29 H29         -2.9389   1.4920   1.3868 H              1 <1>                0.0000
@<TRIPOS>BOND
    1    1    2 ar    
    2    2    3 ar    
    3    2    4 1     
    4    4    5 1     
    5    4   19 1     
    6    4   20 1     
    7    5    6 1     
    8    5   21 1     
    9    5   22 1     
   10    6    7 2     
   11    6    8 am    
   12    8    9 1     
   13    8   23 1     
   14    9   10 1     
   15    9   13 1     
   16    9   24 1     
   17   10   11 ar    
   18   10   12 ar    
   19   13   18 ar    
   20   13   14 ar    
   21   14   15 ar    
   22   14   25 1     
   23   15   16 ar    
   24   15   26 1     
   25   16   17 ar    
   26   16   27 1     
   27   17   18 ar    
   28   17   28 1     
   29   18   29 1     
@<TRIPOS>SUBSTRUCTURE
      1 ****           1
@<TRIPOS>SET
DONOR_HYDROGENS      STATIC     ATOMS    <user>   **** ""
1 23
ATOM$RED        STATIC     ATOMS    COLORGROUP SYSTEM
1 23
