#       Name:                NQS
#       Creating user name   gbret
#       Creation time:       Fri Sep  9 13:22:31 2016


#       File generated by GOLD software.
#

@<TRIPOS>MOLECULE
NQS
    26    27     1
SMALL
NO_CHARGES


@<TRIPOS>ATOM
      1 O1           3.8902   3.9492  -0.0166 O.3            1 <1>                0.0000
      2 C2           3.9096   2.5203  -0.0245 C.3            1 <1>                0.0000
      3 C3           2.4742   1.9908  -0.0136 C.3            1 <1>                0.0000
      4 S4           2.4987   0.1809  -0.0236 S.3            1 <1>                0.0000
      5 C5           0.7679  -0.1486  -0.0088 C.2            1 <1>                0.0000
      6 C6          -0.1132   0.8817  -0.0005 C.2            1 <1>                0.0000
      7 C7          -1.5100   0.6618   0.0115 C.2            1 <1>                0.0000
      8 O8          -2.2703   1.6121   0.0187 O.2            1 <1>                0.0000
      9 C9          -2.0551  -0.7141   0.0147 C.ar           1 <1>                0.0000
     10 C10         -3.4255  -0.9378   0.0253 C.ar           1 <1>                0.0000
     11 C11         -3.9119  -2.2361   0.0277 C.ar           1 <1>                0.0000
     12 C12         -3.0435  -3.3109   0.0196 C.ar           1 <1>                0.0000
     13 C13         -1.6730  -3.1048   0.0093 C.ar           1 <1>                0.0000
     14 C14         -1.1719  -1.8087   0.0063 C.ar           1 <1>                0.0000
     15 C15          0.2848  -1.5534  -0.0118 C.2            1 <1>                0.0000
     16 O16          1.0729  -2.4768  -0.0244 O.2            1 <1>                0.0000
     17 H17          4.7681   4.3545  -0.0228 H              1 <1>                0.0000
     18 H18          4.4198   2.1688  -0.9213 H              1 <1>                0.0000
     19 H19          4.4368   2.1593   0.8586 H              1 <1>                0.0000
     20 H20          1.9640   2.3423   0.8832 H              1 <1>                0.0000
     21 H21          1.9470   2.3518  -0.8967 H              1 <1>                0.0000
     22 H22          0.2608   1.8949  -0.0026 H              1 <1>                0.0000
     23 H23         -4.1105  -0.1028   0.0321 H              1 <1>                0.0000
     24 H24         -4.9779  -2.4088   0.0364 H              1 <1>                0.0000
     25 H25         -3.4350  -4.3174   0.0216 H              1 <1>                0.0000
     26 H26         -0.9977  -3.9476   0.0033 H              1 <1>                0.0000
@<TRIPOS>BOND
    1    1    2 1     
    2    1   17 1     
    3    2    3 1     
    4    2   18 1     
    5    2   19 1     
    6    3    4 1     
    7    3   20 1     
    8    3   21 1     
    9    4    5 1     
   10    5   15 1     
   11    5    6 2     
   12    6    7 1     
   13    6   22 1     
   14    7    8 2     
   15    7    9 1     
   16    9   14 ar    
   17    9   10 ar    
   18   10   11 ar    
   19   10   23 1     
   20   11   12 ar    
   21   11   24 1     
   22   12   13 ar    
   23   12   25 1     
   24   13   14 ar    
   25   13   26 1     
   26   14   15 1     
   27   15   16 2     
@<TRIPOS>SUBSTRUCTURE
      1 ****           1
@<TRIPOS>SET
DONOR_HYDROGENS      STATIC     ATOMS    <user>   **** ""
1 17
ATOM$RED        STATIC     ATOMS    COLORGROUP SYSTEM
1 17
