#       Name:                NSP
#       Creating user name   gbret
#       Creation time:       Fri Sep  9 13:24:58 2016


#       File generated by GOLD software.
#

@<TRIPOS>MOLECULE
NSP
    21    21     1
SMALL
NO_CHARGES


@<TRIPOS>ATOM
      1 C1           0.2053   3.6061  -0.2988 C.3            1 <1>                0.0000
      2 C2           0.2258   2.0992  -0.3071 C.ar           1 <1>                0.0000
      3 N3           0.2289   1.4650  -1.4623 N.ar           1 <1>                0.0000
      4 C4           0.2466   0.1406  -1.5142 C.ar           1 <1>                0.0000
      5 C5           0.2620  -0.5797  -0.3358 C.ar           1 <1>                0.0000
      6 C6           0.2829  -2.0865  -0.3518 C.3            1 <1>                0.0000
      7 N7          -1.0729  -2.5976  -0.1102 N.4            1 <1>                0.0000
      8 H8          -1.3987  -2.2753   0.7887 H              1 <1>                0.0000
      9 H9          -1.6925  -2.2621  -0.8325 H              1 <1>                0.0000
     10 H10         -1.0590  -3.6064  -0.1210 H              1 <1>                0.0000
     11 C11          0.2583   0.1232   0.8706 C.ar           1 <1>                0.0000
     12 N12          0.2733  -0.5535   2.0795 N.pl3          1 <1>                0.0000
     13 N13          0.2455   1.4527   0.8407 N.ar           1 <1>                0.0000
     14 H14          1.2279   3.9834  -0.3065 H              1 <1>                0.0000
     15 H15         -0.3218   3.9672  -1.1819 H              1 <1>                0.0000
     16 H16         -0.3049   3.9576   0.5980 H              1 <1>                0.0000
     17 H17          0.2486  -0.3691  -2.4663 H              1 <1>                0.0000
     18 H18          0.6348  -2.4347  -1.3229 H              1 <1>                0.0000
     19 H19          0.9522  -2.4489   0.4285 H              1 <1>                0.0000
     20 H20          0.2865  -1.5233   2.0923 H              1 <1>                0.0000
     21 H21          0.2705  -0.0575   2.9130 H              1 <1>                0.0000
@<TRIPOS>BOND
    1    1    2 1     
    2    1   14 1     
    3    1   15 1     
    4    1   16 1     
    5    2   13 ar    
    6    2    3 ar    
    7    3    4 ar    
    8    4    5 ar    
    9    4   17 1     
   10    5    6 1     
   11    5   11 ar    
   12    6    7 1     
   13    6   18 1     
   14    6   19 1     
   15    7    8 1     
   16    7    9 1     
   17    7   10 1     
   18   11   12 1     
   19   11   13 ar    
   20   12   20 1     
   21   12   21 1     
@<TRIPOS>SUBSTRUCTURE
      1 ****           1
@<TRIPOS>SET
DONOR_HYDROGENS      STATIC     ATOMS    <user>   **** ""
5 8 9 10 20 21
ATOM$RED        STATIC     ATOMS    COLORGROUP SYSTEM
5 8 9 10 20 21
