#       Name:                NSY
#       Creating user name   gbret
#       Creation time:       Fri Sep  9 13:25:22 2016


#       File generated by GOLD software.
#

@<TRIPOS>MOLECULE
NSY
   135   140     1
SMALL
NO_CHARGES


@<TRIPOS>ATOM
      1 N1           6.9258   5.5546  -1.5640 N.pl3          1 <1>                0.0000
      2 C2           6.9439   4.2228  -1.5713 C.cat          1 <1>                0.0000
      3 N3           8.1063   3.5726  -1.5859 N.pl3          1 <1>                0.0000
      4 H4           8.9396   4.0690  -1.5912 H              1 <1>                0.0000
      5 H5           8.1194   2.6027  -1.5912 H              1 <1>                0.0000
      6 N6           5.7687   3.5229  -1.5638 N.pl3          1 <1>                0.0000
      7 C7           4.4902   4.2380  -1.5478 C.3            1 <1>                0.0000
      8 C8           3.3410   3.2280  -1.5422 C.3            1 <1>                0.0000
      9 C9           2.0058   3.9749  -1.5255 C.3            1 <1>                0.0000
     10 C10          0.8565   2.9650  -1.5199 C.3            1 <1>                0.0000
     11 N11          0.8869   2.1974  -0.2724 N.am           1 <1>                0.0000
     12 C12          1.6736   1.1078  -0.1707 C.2            1 <1>                0.0000
     13 O13          2.3563   0.7627  -1.1118 O.2            1 <1>                0.0000
     14 C14          1.7049   0.3183   1.1126 C.3            1 <1>                0.0000
     15 C15          0.4853  -0.6036   1.1741 C.3            1 <1>                0.0000
     16 C16          0.4498  -1.3127   2.5294 C.3            1 <1>                0.0000
     17 C17         -0.7698  -2.2345   2.5908 C.3            1 <1>                0.0000
     18 C18         -0.8053  -2.9436   3.9461 C.3            1 <1>                0.0000
     19 N19         -1.9730  -3.8263   4.0050 N.am           1 <1>                0.0000
     20 C20         -2.2100  -4.5574   5.1122 C.2            1 <1>                0.0000
     21 O21         -1.4565  -4.4846   6.0597 O.2            1 <1>                0.0000
     22 C22         -3.4112  -5.4654   5.1727 C.3            1 <1>                0.0000
     23 C23         -3.4462  -6.1638   6.5076 C.ar           1 <1>                0.0000
     24 C24         -2.8021  -7.3775   6.6674 C.ar           1 <1>                0.0000
     25 C25         -2.8309  -8.0215   7.8878 C.ar           1 <1>                0.0000
     26 C26         -3.5104  -7.4469   8.9600 C.ar           1 <1>                0.0000
     27 C27         -4.1574  -6.2242   8.7934 C.ar           1 <1>                0.0000
     28 C28         -4.1174  -5.5861   7.5702 C.ar           1 <1>                0.0000
     29 C29         -3.5452  -8.1349  10.2743 C.ar           1 <1>                0.0000
     30 C30         -2.8938  -9.3551  10.4423 C.ar           1 <1>                0.0000
     31 C31         -2.9290  -9.9904  11.6671 C.ar           1 <1>                0.0000
     32 C32         -3.6098  -9.4182  12.7265 C.ar           1 <1>                0.0000
     33 C33         -4.2587  -8.2073  12.5652 C.ar           1 <1>                0.0000
     34 C34         -4.2247  -7.5603  11.3465 C.ar           1 <1>                0.0000
     35 N35          2.9281  -0.4864   1.1612 N.am           1 <1>                0.0000
     36 C36          3.1675  -1.4071   0.2065 C.2            1 <1>                0.0000
     37 O37          2.3701  -1.5695  -0.6929 O.2            1 <1>                0.0000
     38 C38          4.4258  -2.2348   0.2564 C.3            1 <1>                0.0000
     39 C39          4.4517  -3.1809  -0.9163 C.ar           1 <1>                0.0000
     40 C40          3.8883  -4.4388  -0.7993 C.ar           1 <1>                0.0000
     41 C41          3.9091  -5.3093  -1.8701 C.ar           1 <1>                0.0000
     42 C42          4.4991  -4.9190  -3.0706 C.ar           1 <1>                0.0000
     43 C43          5.0651  -3.6508  -3.1828 C.ar           1 <1>                0.0000
     44 C44          5.0337  -2.7862  -2.1074 C.ar           1 <1>                0.0000
     45 C45          4.5250  -5.8509  -4.2251 C.ar           1 <1>                0.0000
     46 C46          3.9542  -7.1172  -4.1146 C.ar           1 <1>                0.0000
     47 C47          3.9807  -7.9797  -5.1918 C.ar           1 <1>                0.0000
     48 C48          4.5728  -7.5891  -6.3793 C.ar           1 <1>                0.0000
     49 C49          5.1412  -6.3334  -6.4944 C.ar           1 <1>                0.0000
     50 C50          5.1150  -5.4606  -5.4256 C.ar           1 <1>                0.0000
     51 C51         -0.4563   3.6972  -1.6273 C.2            1 <1>                0.0000
     52 O52         -1.2849   3.5886  -0.7483 O.2            1 <1>                0.0000
     53 N53         -0.7095   4.4728  -2.7001 N.am           1 <1>                0.0000
     54 C54         -1.9857   5.1846  -2.8045 C.3            1 <1>                0.0000
     55 C55         -1.8922   6.5125  -2.0502 C.3            1 <1>                0.0000
     56 C56         -1.7053   6.2426  -0.5793 C.ar           1 <1>                0.0000
     57 C57         -2.8074   6.1114   0.2447 C.ar           1 <1>                0.0000
     58 C58         -2.6360   5.8639   1.5939 C.ar           1 <1>                0.0000
     59 C59         -1.3626   5.7471   2.1189 C.ar           1 <1>                0.0000
     60 C60         -0.2605   5.8775   1.2946 C.ar           1 <1>                0.0000
     61 C61         -0.4320   6.1207  -0.0553 C.ar           1 <1>                0.0000
     62 C62         -2.2948   5.4516  -4.2551 C.2            1 <1>                0.0000
     63 O63         -1.5249   5.0835  -5.1168 O.2            1 <1>                0.0000
     64 N64         -3.4268   6.0994  -4.5947 N.am           1 <1>                0.0000
     65 C65         -3.7273   6.3589  -6.0049 C.3            1 <1>                0.0000
     66 C66         -5.0601   7.1024  -6.1139 C.3            1 <1>                0.0000
     67 C67         -5.3692   7.3693  -7.5645 C.ar           1 <1>                0.0000
     68 C68         -4.9282   8.5353  -8.1619 C.ar           1 <1>                0.0000
     69 C69         -5.2117   8.7802  -9.4925 C.ar           1 <1>                0.0000
     70 C70         -5.9358   7.8589 -10.2258 C.ar           1 <1>                0.0000
     71 C71         -6.3760   6.6925  -9.6286 C.ar           1 <1>                0.0000
     72 C72         -6.0888   6.4456  -8.2992 C.ar           1 <1>                0.0000
     73 H73          7.7592   6.0510  -1.5692 H              1 <1>                0.0000
     74 H74          6.0793   6.0282  -1.5574 H              1 <1>                0.0000
     75 H75          5.7819   2.5530  -1.5692 H              1 <1>                0.0000
     76 H76          4.4325   4.8590  -0.6539 H              1 <1>                0.0000
     77 H77          4.4155   4.8686  -2.4337 H              1 <1>                0.0000
     78 H78          3.3987   2.6070  -2.4361 H              1 <1>                0.0000
     79 H79          3.4157   2.5975  -0.6563 H              1 <1>                0.0000
     80 H80          1.9480   4.5960  -0.6315 H              1 <1>                0.0000
     81 H81          1.9310   4.6055  -2.4114 H              1 <1>                0.0000
     82 H82          0.9646   2.2869  -2.3664 H              1 <1>                0.0000
     83 H83          0.3409   2.4734   0.4803 H              1 <1>                0.0000
     84 H84          1.6862   1.0026   1.9608 H              1 <1>                0.0000
     85 H85         -0.4227  -0.0137   1.0487 H              1 <1>                0.0000
     86 H86          0.5497  -1.3450   0.3777 H              1 <1>                0.0000
     87 H87          1.3578  -1.9025   2.6547 H              1 <1>                0.0000
     88 H88          0.3853  -0.5712   3.3258 H              1 <1>                0.0000
     89 H89         -1.6778  -1.6446   2.4655 H              1 <1>                0.0000
     90 H90         -0.7053  -2.9759   1.7945 H              1 <1>                0.0000
     91 H91          0.1027  -3.5335   4.0715 H              1 <1>                0.0000
     92 H92         -0.8697  -2.2022   4.7425 H              1 <1>                0.0000
     93 H93         -2.5757  -3.8845   3.2472 H              1 <1>                0.0000
     94 H94         -4.3192  -4.8755   5.0474 H              1 <1>                0.0000
     95 H95         -3.3468  -6.2068   4.3763 H              1 <1>                0.0000
     96 H96         -2.2761  -7.8221   5.8355 H              1 <1>                0.0000
     97 H97         -2.3281  -8.9693   8.0113 H              1 <1>                0.0000
     98 H98         -4.6858  -5.7745   9.6211 H              1 <1>                0.0000
     99 H99         -4.6183  -4.6382   7.4401 H              1 <1>                0.0000
    100 H100        -2.3625  -9.8030   9.6156 H              1 <1>                0.0000
    101 H101        -2.4244 -10.9361  11.7984 H              1 <1>                0.0000
    102 H102        -3.6352  -9.9189  13.6831 H              1 <1>                0.0000
    103 H103        -4.7891  -7.7651  13.3956 H              1 <1>                0.0000
    104 H104        -4.7317  -6.6149  11.2216 H              1 <1>                0.0000
    105 H105         3.5658  -0.3565   1.8804 H              1 <1>                0.0000
    106 H106         5.2947  -1.5781   0.2126 H              1 <1>                0.0000
    107 H107         4.4485  -2.8059   1.1846 H              1 <1>                0.0000
    108 H108         3.4316  -4.7404   0.1317 H              1 <1>                0.0000
    109 H109         3.4693  -6.2913  -1.7776 H              1 <1>                0.0000
    110 H110         5.5240  -3.3433  -4.1109 H              1 <1>                0.0000
    111 H111         5.4718  -1.8028  -2.1934 H              1 <1>                0.0000
    112 H112         3.4923  -7.4233  -3.1876 H              1 <1>                0.0000
    113 H113         3.5386  -8.9614  -5.1072 H              1 <1>                0.0000
    114 H114         4.5916  -8.2673  -7.2196 H              1 <1>                0.0000
    115 H115         5.6025  -6.0337  -7.4239 H              1 <1>                0.0000
    116 H116         5.5591  -4.4803  -5.5165 H              1 <1>                0.0000
    117 H117        -0.0468   4.5596  -3.4031 H              1 <1>                0.0000
    118 H118        -2.7783   4.5752  -2.3703 H              1 <1>                0.0000
    119 H119        -1.0435   7.0844  -2.4253 H              1 <1>                0.0000
    120 H120        -2.8093   7.0817  -2.2015 H              1 <1>                0.0000
    121 H121        -3.8023   6.2026  -0.1654 H              1 <1>                0.0000
    122 H122        -3.4970   5.7620   2.2379 H              1 <1>                0.0000
    123 H123        -1.2287   5.5544   3.1731 H              1 <1>                0.0000
    124 H124         0.7344   5.7866   1.7049 H              1 <1>                0.0000
    125 H125         0.4290   6.2226  -0.6993 H              1 <1>                0.0000
    126 H126        -4.0426   6.3938  -3.9054 H              1 <1>                0.0000
    127 H127        -2.9347   6.9684  -6.4390 H              1 <1>                0.0000
    128 H128        -3.7939   5.4129  -6.5422 H              1 <1>                0.0000
    129 H129        -5.8526   6.4929  -5.6797 H              1 <1>                0.0000
    130 H130        -4.9934   8.0484  -5.5765 H              1 <1>                0.0000
    131 H131        -4.3625   9.2551  -7.5890 H              1 <1>                0.0000
    132 H132        -4.8678   9.6915  -9.9591 H              1 <1>                0.0000
    133 H133        -6.1580   8.0506 -11.2652 H              1 <1>                0.0000
    134 H134        -6.9420   5.9728 -10.2015 H              1 <1>                0.0000
    135 H135        -6.4327   5.5343  -7.8326 H              1 <1>                0.0000
@<TRIPOS>BOND
    1    1    2 ar    
    2    1   73 1     
    3    1   74 1     
    4    2    3 ar    
    5    2    6 ar    
    6    3    4 1     
    7    3    5 1     
    8    6    7 1     
    9    6   75 1     
   10    7    8 1     
   11    7   76 1     
   12    7   77 1     
   13    8    9 1     
   14    8   78 1     
   15    8   79 1     
   16    9   10 1     
   17    9   80 1     
   18    9   81 1     
   19   10   11 1     
   20   10   51 1     
   21   10   82 1     
   22   11   12 am    
   23   11   83 1     
   24   12   13 2     
   25   12   14 1     
   26   14   15 1     
   27   14   35 1     
   28   14   84 1     
   29   15   16 1     
   30   15   85 1     
   31   15   86 1     
   32   16   17 1     
   33   16   87 1     
   34   16   88 1     
   35   17   18 1     
   36   17   89 1     
   37   17   90 1     
   38   18   19 1     
   39   18   91 1     
   40   18   92 1     
   41   19   20 am    
   42   19   93 1     
   43   20   21 2     
   44   20   22 1     
   45   22   23 1     
   46   22   94 1     
   47   22   95 1     
   48   23   28 ar    
   49   23   24 ar    
   50   24   25 ar    
   51   24   96 1     
   52   25   26 ar    
   53   25   97 1     
   54   26   27 ar    
   55   26   29 1     
   56   27   28 ar    
   57   27   98 1     
   58   28   99 1     
   59   29   34 ar    
   60   29   30 ar    
   61   30   31 ar    
   62   30  100 1     
   63   31   32 ar    
   64   31  101 1     
   65   32   33 ar    
   66   32  102 1     
   67   33   34 ar    
   68   33  103 1     
   69   34  104 1     
   70   35   36 am    
   71   35  105 1     
   72   36   37 2     
   73   36   38 1     
   74   38   39 1     
   75   38  106 1     
   76   38  107 1     
   77   39   44 ar    
   78   39   40 ar    
   79   40   41 ar    
   80   40  108 1     
   81   41   42 ar    
   82   41  109 1     
   83   42   43 ar    
   84   42   45 1     
   85   43   44 ar    
   86   43  110 1     
   87   44  111 1     
   88   45   50 ar    
   89   45   46 ar    
   90   46   47 ar    
   91   46  112 1     
   92   47   48 ar    
   93   47  113 1     
   94   48   49 ar    
   95   48  114 1     
   96   49   50 ar    
   97   49  115 1     
   98   50  116 1     
   99   51   52 2     
  100   51   53 am    
  101   53   54 1     
  102   53  117 1     
  103   54   55 1     
  104   54   62 1     
  105   54  118 1     
  106   55   56 1     
  107   55  119 1     
  108   55  120 1     
  109   56   61 ar    
  110   56   57 ar    
  111   57   58 ar    
  112   57  121 1     
  113   58   59 ar    
  114   58  122 1     
  115   59   60 ar    
  116   59  123 1     
  117   60   61 ar    
  118   60  124 1     
  119   61  125 1     
  120   62   63 2     
  121   62   64 am    
  122   64   65 1     
  123   64  126 1     
  124   65   66 1     
  125   65  127 1     
  126   65  128 1     
  127   66   67 1     
  128   66  129 1     
  129   66  130 1     
  130   67   72 ar    
  131   67   68 ar    
  132   68   69 ar    
  133   68  131 1     
  134   69   70 ar    
  135   69  132 1     
  136   70   71 ar    
  137   70  133 1     
  138   71   72 ar    
  139   71  134 1     
  140   72  135 1     
@<TRIPOS>SUBSTRUCTURE
      1 ****           1
@<TRIPOS>SET
DONOR_HYDROGENS      STATIC     ATOMS    <user>   **** ""
10 73 74 4 5 75 83 93 105 117 126
ATOM$RED        STATIC     ATOMS    COLORGROUP SYSTEM
10 73 74 4 5 75 83 93 105 117 126
