#       Name:                NTP
#       Creating user name   gbret
#       Creation time:       Fri Sep  9 13:26:36 2016


#       File generated by GOLD software.
#

@<TRIPOS>MOLECULE
NTP
   149   153     1
SMALL
NO_CHARGES


@<TRIPOS>ATOM
      1 C1          -5.1884  -1.5706  -7.6237 C.3            1 <1>                0.0000
      2 O2          -4.7409  -2.4726  -6.6097 O.3            1 <1>                0.0000
      3 C3          -3.7170  -3.3710  -7.0417 C.3            1 <1>                0.0000
      4 O4          -2.4860  -2.6589  -7.1814 O.3            1 <1>                0.0000
      5 C5          -1.3954  -3.4625  -7.6363 C.3            1 <1>                0.0000
      6 C6          -0.1440  -2.5931  -7.7750 C.3            1 <1>                0.0000
      7 O7          -0.3436  -1.6337  -8.8150 O.3            1 <1>                0.0000
      8 S8           0.8460  -0.7121  -9.0436 S.o2           1 <1>                0.0000
      9 O9           1.9306  -1.5432  -9.5425 O.co2          1 <1>                0.0000
     10 O10          0.4257   0.2809 -10.0200 O.co2          1 <1>                0.0000
     11 O11          1.1651  -0.1122  -7.7574 O.co2          1 <1>                0.0000
     12 C12         -1.1306  -4.5807  -6.6247 C.3            1 <1>                0.0000
     13 O13         -0.7527  -4.0101  -5.3702 O.3            1 <1>                0.0000
     14 C14          0.6358  -4.1501  -5.0627 C.3            1 <1>                0.0000
     15 O15          1.2769  -2.8770  -5.1631 O.3            1 <1>                0.0000
     16 C16          0.7310  -1.8789  -4.2982 C.3            1 <1>                0.0000
     17 C17          0.8905  -2.3248  -2.8424 C.3            1 <1>                0.0000
     18 O18          0.2938  -1.3557  -1.9781 O.3            1 <1>                0.0000
     19 C19          0.0943  -1.8151  -0.6397 C.3            1 <1>                0.0000
     20 O20          1.0932  -1.2502   0.2119 O.3            1 <1>                0.0000
     21 C21          1.0009  -1.6670   1.5757 C.3            1 <1>                0.0000
     22 C22          2.1313  -1.0254   2.3829 C.3            1 <1>                0.0000
     23 O23          3.3838  -1.5741   1.9679 O.3            1 <1>                0.0000
     24 S24          4.5848  -1.0071   2.7114 S.o2           1 <1>                0.0000
     25 O25          4.5417  -1.5557   4.0579 O.co2          1 <1>                0.0000
     26 O26          5.7692  -1.4368   1.9844 O.co2          1 <1>                0.0000
     27 O27          4.4362   0.4399   2.7064 O.co2          1 <1>                0.0000
     28 C28         -0.3489  -1.2303   2.1510 C.3            1 <1>                0.0000
     29 O29         -0.4388   0.1957   2.1283 O.3            1 <1>                0.0000
     30 C30         -1.3322   0.7373   3.1032 C.3            1 <1>                0.0000
     31 O31         -0.7198   0.6828   4.3932 O.3            1 <1>                0.0000
     32 C32          0.5163   1.3941   4.4828 C.3            1 <1>                0.0000
     33 C33          0.2731   2.8763   4.1868 C.3            1 <1>                0.0000
     34 O34          1.5164   3.5800   4.2189 O.3            1 <1>                0.0000
     35 C35          1.4462   4.8552   4.8599 C.3            1 <1>                0.0000
     36 O36          1.4787   4.6785   6.2776 O.3            1 <1>                0.0000
     37 C37          1.3876   5.8963   7.0196 C.3            1 <1>                0.0000
     38 C38          1.4035   5.5837   8.5173 C.3            1 <1>                0.0000
     39 O39          2.6459   4.9675   8.8620 O.3            1 <1>                0.0000
     40 S40          2.7214   4.4920  10.3059 S.o2           1 <1>                0.0000
     41 O41          1.8710   3.3160  10.4053 O.co2          1 <1>                0.0000
     42 O42          4.1171   4.1805  10.5724 O.co2          1 <1>                0.0000
     43 O43          2.2386   5.5864  11.1337 O.co2          1 <1>                0.0000
     44 C44          2.5783   6.7939   6.6728 C.3            1 <1>                0.0000
     45 O45          3.7927   6.1451   7.0552 O.3            1 <1>                0.0000
     46 C46          4.4962   6.8037   8.1103 C.3            1 <1>                0.0000
     47 C47          2.5897   7.0530   5.1631 C.3            1 <1>                0.0000
     48 O48          3.7392   7.8295   4.8200 O.3            1 <1>                0.0000
     49 C49          3.5501   8.6780   3.6859 C.3            1 <1>                0.0000
     50 C50          2.6392   5.7110   4.4263 C.3            1 <1>                0.0000
     51 O51          3.8553   5.0336   4.7491 O.3            1 <1>                0.0000
     52 S52          4.5809   4.4552   3.5427 S.o2           1 <1>                0.0000
     53 O53          5.1636   5.5786   2.8254 O.co2          1 <1>                0.0000
     54 O54          5.5967   3.5505   4.0581 O.co2          1 <1>                0.0000
     55 O55          3.5822   3.7583   2.7470 O.co2          1 <1>                0.0000
     56 C56         -0.3578   3.0148   2.7979 C.3            1 <1>                0.0000
     57 O57          0.5526   2.5300   1.8089 O.3            1 <1>                0.0000
     58 C58          0.5196   3.2599   0.5808 C.3            1 <1>                0.0000
     59 C59         -1.6497   2.1931   2.7518 C.3            1 <1>                0.0000
     60 O60         -2.2092   2.2563   1.4384 O.3            1 <1>                0.0000
     61 C61         -3.6339   2.1495   1.4077 C.3            1 <1>                0.0000
     62 C62          1.0823   1.2453   5.8716 C.2            1 <1>                0.0000
     63 O63          0.3369   1.0451   6.8154 O.co2          1 <1>                0.0000
     64 O64          2.2856   1.3249   6.0512 O.co2          1 <1>                0.0000
     65 C65         -1.4746  -1.8278   1.3014 C.3            1 <1>                0.0000
     66 O66         -2.7367  -1.3660   1.7870 O.3            1 <1>                0.0000
     67 S67         -3.8542  -2.3940   1.6822 S.o2           1 <1>                0.0000
     68 O68         -3.6262  -3.3703   2.7362 O.co2          1 <1>                0.0000
     69 O69         -5.1049  -1.6742   1.8660 O.co2          1 <1>                0.0000
     70 O70         -3.7554  -2.9873   0.3577 O.co2          1 <1>                0.0000
     71 C71         -1.2919  -1.3843  -0.1534 C.3            1 <1>                0.0000
     72 O72         -1.4069   0.0376  -0.2371 O.3            1 <1>                0.0000
     73 S73         -2.2802   0.5214  -1.3859 S.o2           1 <1>                0.0000
     74 O74         -3.6575   0.2364  -1.0147 O.co2          1 <1>                0.0000
     75 O75         -2.0366   1.9488  -1.5256 O.co2          1 <1>                0.0000
     76 O76         -1.8684  -0.2208  -2.5673 O.co2          1 <1>                0.0000
     77 C77          0.1965  -3.6770  -2.6517 C.3            1 <1>                0.0000
     78 O78         -1.2036  -3.5348  -2.8994 O.3            1 <1>                0.0000
     79 C79         -2.0270  -4.3579  -2.0708 C.3            1 <1>                0.0000
     80 C80          0.7914  -4.6872  -3.6375 C.3            1 <1>                0.0000
     81 O81          0.1018  -5.9332  -3.5188 O.3            1 <1>                0.0000
     82 S82          0.9884  -7.1533  -3.7228 S.o2           1 <1>                0.0000
     83 O83          1.7869  -7.2982  -2.5156 O.co2          1 <1>                0.0000
     84 O84          0.1007  -8.2870  -3.9295 O.co2          1 <1>                0.0000
     85 O85          1.8106  -6.8835  -4.8921 O.co2          1 <1>                0.0000
     86 C86          1.4616  -0.5777  -4.5082 C.2            1 <1>                0.0000
     87 O87          2.6786  -0.5444  -4.4424 O.co2          1 <1>                0.0000
     88 O88          0.8357   0.4417  -4.7440 O.co2          1 <1>                0.0000
     89 C89         -2.4061  -5.4099  -6.4464 C.3            1 <1>                0.0000
     90 O90         -2.1903  -6.4107  -5.4495 O.3            1 <1>                0.0000
     91 S91         -2.9136  -7.7218  -5.7217 S.o2           1 <1>                0.0000
     92 O92         -2.1793  -8.3936  -6.7827 O.co2          1 <1>                0.0000
     93 O93         -2.8924  -8.4784  -4.4795 O.co2          1 <1>                0.0000
     94 O94         -4.2673  -7.3775  -6.1282 O.co2          1 <1>                0.0000
     95 C95         -3.5455  -4.4855  -6.0062 C.3            1 <1>                0.0000
     96 O96         -3.2316  -3.9124  -4.7353 O.3            1 <1>                0.0000
     97 S97         -4.4295  -3.7707  -3.8072 S.o2           1 <1>                0.0000
     98 O98         -4.6828  -5.0883  -3.2452 O.co2          1 <1>                0.0000
     99 O99         -4.0569  -2.8040  -2.7861 O.co2          1 <1>                0.0000
    100 O100        -5.5391  -3.3026  -4.6231 O.co2          1 <1>                0.0000
    101 H101        -6.0247  -0.9835  -7.2443 H              1 <1>                0.0000
    102 H102        -4.3727  -0.9034  -7.9022 H              1 <1>                0.0000
    103 H103        -5.5091  -2.1370  -8.4980 H              1 <1>                0.0000
    104 H104        -3.9963  -3.8062  -8.0012 H              1 <1>                0.0000
    105 H105        -1.6440  -3.8987  -8.6037 H              1 <1>                0.0000
    106 H106         0.0449  -2.0756  -6.8345 H              1 <1>                0.0000
    107 H107         0.7107  -3.2232  -8.0211 H              1 <1>                0.0000
    108 H108        -0.3274  -5.2203  -6.9906 H              1 <1>                0.0000
    109 H109         1.0954  -4.8452  -5.7653 H              1 <1>                0.0000
    110 H110        -0.3268  -1.7424  -4.5228 H              1 <1>                0.0000
    111 H111         1.9499  -2.4213  -2.6049 H              1 <1>                0.0000
    112 H112         0.1669  -2.9024  -0.6140 H              1 <1>                0.0000
    113 H113         1.0857  -2.7523   1.6306 H              1 <1>                0.0000
    114 H114         2.1325   0.0514   2.2140 H              1 <1>                0.0000
    115 H115         1.9800  -1.2267   3.4434 H              1 <1>                0.0000
    116 H116        -0.4389  -1.5846   3.1779 H              1 <1>                0.0000
    117 H117        -2.2545   0.1564   3.1136 H              1 <1>                0.0000
    118 H118         1.2220   0.9896   3.7572 H              1 <1>                0.0000
    119 H119        -0.4001   3.2919   4.9367 H              1 <1>                0.0000
    120 H120         0.5192   5.3538   4.5768 H              1 <1>                0.0000
    121 H121         0.4597   6.4085   6.7651 H              1 <1>                0.0000
    122 H122         1.2873   6.5083   9.0827 H              1 <1>                0.0000
    123 H123         0.5835   4.9064   8.7558 H              1 <1>                0.0000
    124 H124         2.4879   7.7408   7.2051 H              1 <1>                0.0000
    125 H125         5.4204   6.2659   8.3219 H              1 <1>                0.0000
    126 H126         4.7308   7.8246   7.8089 H              1 <1>                0.0000
    127 H127         3.8741   6.8229   9.0052 H              1 <1>                0.0000
    128 H128         1.6866   7.5933   4.8791 H              1 <1>                0.0000
    129 H129         3.3005   8.0711   2.8156 H              1 <1>                0.0000
    130 H130         2.7380   9.3769   3.8865 H              1 <1>                0.0000
    131 H131         4.4675   9.2333   3.4906 H              1 <1>                0.0000
    132 H132         2.5919   5.8839   3.3511 H              1 <1>                0.0000
    133 H133        -0.5837   4.0631   2.6029 H              1 <1>                0.0000
    134 H134         1.2969   2.8856  -0.0854 H              1 <1>                0.0000
    135 H135        -0.4549   3.1336   0.1092 H              1 <1>                0.0000
    136 H136         0.6916   4.3173   0.7819 H              1 <1>                0.0000
    137 H137        -2.3626   2.5946   3.4720 H              1 <1>                0.0000
    138 H138        -3.9803   2.2062   0.3758 H              1 <1>                0.0000
    139 H139        -3.9362   1.1959   1.8406 H              1 <1>                0.0000
    140 H140        -4.0718   2.9650   1.9834 H              1 <1>                0.0000
    141 H141        -1.4374  -2.9156   1.3597 H              1 <1>                0.0000
    142 H142        -2.0569  -1.8498  -0.7749 H              1 <1>                0.0000
    143 H143         0.3526  -4.0262  -1.6310 H              1 <1>                0.0000
    144 H144        -3.0661  -4.2679  -2.3873 H              1 <1>                0.0000
    145 H145        -1.7088  -5.3966  -2.1598 H              1 <1>                0.0000
    146 H146        -1.9341  -4.0371  -1.0332 H              1 <1>                0.0000
    147 H147         1.8488  -4.8326  -3.4165 H              1 <1>                0.0000
    148 H148        -2.6661  -5.8867  -7.3914 H              1 <1>                0.0000
    149 H149        -4.4701  -5.0577  -5.9304 H              1 <1>                0.0000
@<TRIPOS>BOND
    1    1    2 1     
    2    1  101 1     
    3    1  102 1     
    4    1  103 1     
    5    2    3 1     
    6    3   95 1     
    7    3    4 1     
    8    3  104 1     
    9    4    5 1     
   10    5    6 1     
   11    5   12 1     
   12    5  105 1     
   13    6    7 1     
   14    6  106 1     
   15    6  107 1     
   16    7    8 1     
   17    8    9 ar    
   18    8   10 ar    
   19    8   11 ar    
   20   12   13 1     
   21   12   89 1     
   22   12  108 1     
   23   13   14 1     
   24   14   80 1     
   25   14   15 1     
   26   14  109 1     
   27   15   16 1     
   28   16   17 1     
   29   16   86 1     
   30   16  110 1     
   31   17   18 1     
   32   17   77 1     
   33   17  111 1     
   34   18   19 1     
   35   19   71 1     
   36   19   20 1     
   37   19  112 1     
   38   20   21 1     
   39   21   22 1     
   40   21   28 1     
   41   21  113 1     
   42   22   23 1     
   43   22  114 1     
   44   22  115 1     
   45   23   24 1     
   46   24   25 ar    
   47   24   26 ar    
   48   24   27 ar    
   49   28   29 1     
   50   28   65 1     
   51   28  116 1     
   52   29   30 1     
   53   30   59 1     
   54   30   31 1     
   55   30  117 1     
   56   31   32 1     
   57   32   33 1     
   58   32   62 1     
   59   32  118 1     
   60   33   34 1     
   61   33   56 1     
   62   33  119 1     
   63   34   35 1     
   64   35   50 1     
   65   35   36 1     
   66   35  120 1     
   67   36   37 1     
   68   37   38 1     
   69   37   44 1     
   70   37  121 1     
   71   38   39 1     
   72   38  122 1     
   73   38  123 1     
   74   39   40 1     
   75   40   41 ar    
   76   40   42 ar    
   77   40   43 ar    
   78   44   45 1     
   79   44   47 1     
   80   44  124 1     
   81   45   46 1     
   82   46  125 1     
   83   46  126 1     
   84   46  127 1     
   85   47   48 1     
   86   47   50 1     
   87   47  128 1     
   88   48   49 1     
   89   49  129 1     
   90   49  130 1     
   91   49  131 1     
   92   50   51 1     
   93   50  132 1     
   94   51   52 1     
   95   52   53 ar    
   96   52   54 ar    
   97   52   55 ar    
   98   56   57 1     
   99   56   59 1     
  100   56  133 1     
  101   57   58 1     
  102   58  134 1     
  103   58  135 1     
  104   58  136 1     
  105   59   60 1     
  106   59  137 1     
  107   60   61 1     
  108   61  138 1     
  109   61  139 1     
  110   61  140 1     
  111   62   63 ar    
  112   62   64 ar    
  113   65   66 1     
  114   65   71 1     
  115   65  141 1     
  116   66   67 1     
  117   67   68 ar    
  118   67   69 ar    
  119   67   70 ar    
  120   71   72 1     
  121   71  142 1     
  122   72   73 1     
  123   73   74 ar    
  124   73   75 ar    
  125   73   76 ar    
  126   77   78 1     
  127   77   80 1     
  128   77  143 1     
  129   78   79 1     
  130   79  144 1     
  131   79  145 1     
  132   79  146 1     
  133   80   81 1     
  134   80  147 1     
  135   81   82 1     
  136   82   83 ar    
  137   82   84 ar    
  138   82   85 ar    
  139   86   87 ar    
  140   86   88 ar    
  141   89   90 1     
  142   89   95 1     
  143   89  148 1     
  144   90   91 1     
  145   91   92 ar    
  146   91   93 ar    
  147   91   94 ar    
  148   95   96 1     
  149   95  149 1     
  150   96   97 1     
  151   97   98 ar    
  152   97   99 ar    
  153   97  100 ar    
@<TRIPOS>SUBSTRUCTURE
      1 ****           1
