#       Name:                NU7
#       Creating user name   gbret
#       Creation time:       Fri Sep  9 13:27:25 2016


#       File generated by GOLD software.
#

@<TRIPOS>MOLECULE
NU7
    62    66     1
SMALL
NO_CHARGES


@<TRIPOS>ATOM
      1 C1          -3.6831   4.9570  -1.8789 C.3            1 <1>                0.0000
      2 N2          -3.6632   3.4881  -1.8870 N.4            1 <1>                0.0000
      3 H3          -4.6102   3.1399  -1.8798 H              1 <1>                0.0000
      4 C4          -2.9791   3.0162  -3.0968 C.3            1 <1>                0.0000
      5 C5          -3.0266   1.4877  -3.1509 C.3            1 <1>                0.0000
      6 C6          -2.3293   0.9167  -1.9127 C.3            1 <1>                0.0000
      7 C7          -0.8541   1.3222  -1.9237 C.3            1 <1>                0.0000
      8 N8          -0.1885   0.7753  -0.7387 N.am           1 <1>                0.0000
      9 C9           1.1239   1.0058  -0.5363 C.2            1 <1>                0.0000
     10 O10          1.7552   1.6675  -1.3369 O.2            1 <1>                0.0000
     11 C11          1.7956   0.4538   0.6597 C.ar           1 <1>                0.0000
     12 C12          1.0732  -0.3116   1.5778 C.ar           1 <1>                0.0000
     13 C13          1.7001  -0.8273   2.6939 C.ar           1 <1>                0.0000
     14 C14          3.0440  -0.5901   2.9099 C.ar           1 <1>                0.0000
     15 C15          3.7759   0.1723   2.0008 C.ar           1 <1>                0.0000
     16 C16          3.1525   0.6911   0.8708 C.ar           1 <1>                0.0000
     17 C17          5.2195   0.4258   2.2357 C.2            1 <1>                0.0000
     18 N18          6.0192   1.1240   1.4724 N.2            1 <1>                0.0000
     19 O19          7.1367   1.1397   1.9436 O.3            1 <1>                0.0000
     20 C20          7.1640   0.4375   3.0806 C.2            1 <1>                0.0000
     21 N21          5.9522  -0.0171   3.2822 N.2            1 <1>                0.0000
     22 C22          8.3621   0.2160   3.9674 C.3            1 <1>                0.0000
     23 F23          9.0351  -0.9414   3.5615 F              1 <1>                0.0000
     24 F24          9.2233   1.3144   3.8706 F              1 <1>                0.0000
     25 F25          7.9403   0.0695   5.2932 F              1 <1>                0.0000
     26 C26         -3.0043   1.4743  -0.6562 C.3            1 <1>                0.0000
     27 C27         -2.9562   3.0033  -0.6955 C.3            1 <1>                0.0000
     28 C28         -2.4390  -0.5863  -1.9208 C.2            1 <1>                0.0000
     29 N29         -1.9582  -1.3624  -1.0123 N.2            1 <1>                0.0000
     30 C30         -2.1426  -2.6651  -1.1711 C.2            1 <1>                0.0000
     31 C31         -2.8231  -2.9921  -2.2882 C.2            1 <1>                0.0000
     32 S32         -3.2250  -1.4993  -3.1331 S.3            1 <1>                0.0000
     33 C33         -1.6442  -3.6745  -0.2050 C.ar           1 <1>                0.0000
     34 C34         -1.0441  -3.2671   0.9851 C.ar           1 <1>                0.0000
     35 C35         -0.5827  -4.2105   1.8804 C.ar           1 <1>                0.0000
     36 C36         -0.7150  -5.5583   1.5985 C.ar           1 <1>                0.0000
     37 C37         -1.3094  -5.9684   0.4187 C.ar           1 <1>                0.0000
     38 C38         -1.7796  -5.0338  -0.4813 C.ar           1 <1>                0.0000
     39 H39         -2.6606   5.3343  -1.8866 H              1 <1>                0.0000
     40 H40         -4.2103   5.3181  -2.7620 H              1 <1>                0.0000
     41 H41         -4.1933   5.3085  -0.9821 H              1 <1>                0.0000
     42 H42         -3.4745   3.4260  -3.9771 H              1 <1>                0.0000
     43 H43         -1.9405   3.3466  -3.0787 H              1 <1>                0.0000
     44 H44         -4.0648   1.1562  -3.1693 H              1 <1>                0.0000
     45 H45         -2.5165   1.1392  -4.0489 H              1 <1>                0.0000
     46 H46         -0.3764   0.9308  -2.8218 H              1 <1>                0.0000
     47 H47         -0.7760   2.4093  -1.9149 H              1 <1>                0.0000
     48 H48         -0.6924   0.2472  -0.0998 H              1 <1>                0.0000
     49 H49          0.0224  -0.4998   1.4143 H              1 <1>                0.0000
     50 H50          1.1378  -1.4183   3.4017 H              1 <1>                0.0000
     51 H51          3.5287  -0.9962   3.7854 H              1 <1>                0.0000
     52 H52          3.7159   1.2823   0.1640 H              1 <1>                0.0000
     53 H53         -4.0421   1.1425  -0.6229 H              1 <1>                0.0000
     54 H54         -2.4784   1.1162   0.2288 H              1 <1>                0.0000
     55 H55         -1.9177   3.3329  -0.7286 H              1 <1>                0.0000
     56 H56         -3.4355   3.4046   0.1974 H              1 <1>                0.0000
     57 H57         -3.0801  -3.9917  -2.6064 H              1 <1>                0.0000
     58 H58         -0.9400  -2.2150   1.2060 H              1 <1>                0.0000
     59 H59         -0.1171  -3.8960   2.8028 H              1 <1>                0.0000
     60 H60         -0.3525  -6.2932   2.3021 H              1 <1>                0.0000
     61 H61         -1.4097  -7.0220   0.2036 H              1 <1>                0.0000
     62 H62         -2.2435  -5.3550  -1.4022 H              1 <1>                0.0000
@<TRIPOS>BOND
    1    1    2 1     
    2    1   39 1     
    3    1   40 1     
    4    1   41 1     
    5    2    3 1     
    6    2   27 1     
    7    2    4 1     
    8    4    5 1     
    9    4   42 1     
   10    4   43 1     
   11    5    6 1     
   12    5   44 1     
   13    5   45 1     
   14    6    7 1     
   15    6   26 1     
   16    6   28 1     
   17    7    8 1     
   18    7   46 1     
   19    7   47 1     
   20    8    9 am    
   21    8   48 1     
   22    9   10 2     
   23    9   11 1     
   24   11   16 ar    
   25   11   12 ar    
   26   12   13 ar    
   27   12   49 1     
   28   13   14 ar    
   29   13   50 1     
   30   14   15 ar    
   31   14   51 1     
   32   15   16 ar    
   33   15   17 1     
   34   16   52 1     
   35   17   21 1     
   36   17   18 2     
   37   18   19 1     
   38   19   20 1     
   39   20   21 2     
   40   20   22 1     
   41   22   23 1     
   42   22   24 1     
   43   22   25 1     
   44   26   27 1     
   45   26   53 1     
   46   26   54 1     
   47   27   55 1     
   48   27   56 1     
   49   28   32 1     
   50   28   29 2     
   51   29   30 1     
   52   30   31 2     
   53   30   33 1     
   54   31   32 1     
   55   31   57 1     
   56   33   38 ar    
   57   33   34 ar    
   58   34   35 ar    
   59   34   58 1     
   60   35   36 ar    
   61   35   59 1     
   62   36   37 ar    
   63   36   60 1     
   64   37   38 ar    
   65   37   61 1     
   66   38   62 1     
@<TRIPOS>SUBSTRUCTURE
      1 ****           1
@<TRIPOS>SET
DONOR_HYDROGENS      STATIC     ATOMS    <user>   **** ""
2 3 48
ATOM$RED        STATIC     ATOMS    COLORGROUP SYSTEM
2 3 48
