#       Name:                NZF
#       Creating user name   gbret
#       Creation time:       Fri Sep  9 13:31:39 2016


#       File generated by GOLD software.
#

@<TRIPOS>MOLECULE
NZF
    70    73     1
SMALL
NO_CHARGES


@<TRIPOS>ATOM
      1 C1          -3.9117  -5.9684  -2.7670 C.3            1 <1>                0.0000
      2 O2          -3.8597  -5.6051  -4.1481 O.3            1 <1>                0.0000
      3 C3          -3.2037  -4.4554  -4.4598 C.ar           1 <1>                0.0000
      4 C4          -2.6183  -3.6977  -3.4575 C.ar           1 <1>                0.0000
      5 C5          -1.9486  -2.5240  -3.7755 C.ar           1 <1>                0.0000
      6 N6          -1.3576  -1.7592  -2.7625 N.pl3          1 <1>                0.0000
      7 C7          -0.8133  -2.3827  -1.6522 C.ar           1 <1>                0.0000
      8 N8          -0.7562  -3.7061  -1.6176 N.ar           1 <1>                0.0000
      9 C9          -0.2427  -4.3385  -0.5729 C.ar           1 <1>                0.0000
     10 C10          0.2386  -3.6031   0.4927 C.ar           1 <1>                0.0000
     11 C11          0.1652  -2.2100   0.4280 C.ar           1 <1>                0.0000
     12 N12         -0.3578  -1.6413  -0.6536 N.ar           1 <1>                0.0000
     13 N13          0.6356  -1.4321   1.4733 N.3            1 <1>                0.0000
     14 C14         -0.0091  -1.8055   2.7388 C.3            1 <1>                0.0000
     15 C15          0.6363  -1.0305   3.8898 C.3            1 <1>                0.0000
     16 C16          0.4786   0.4718   3.6388 C.3            1 <1>                0.0000
     17 C17          1.1158   0.8260   2.2924 C.3            1 <1>                0.0000
     18 C18          0.4565  -0.0028   1.1877 C.3            1 <1>                0.0000
     19 C19          0.9132   2.2924   2.0101 C.2            1 <1>                0.0000
     20 O20          0.3046   2.6410   1.0206 O.2            1 <1>                0.0000
     21 N21          1.4082   3.2164   2.8572 N.am           1 <1>                0.0000
     22 C22          1.2112   4.6420   2.5828 C.3            1 <1>                0.0000
     23 C23          1.8565   5.4574   3.6736 C.ar           1 <1>                0.0000
     24 C24          1.1304   5.8045   4.7981 C.ar           1 <1>                0.0000
     25 C25          1.7196   6.5521   5.8007 C.ar           1 <1>                0.0000
     26 C26          3.0361   6.9542   5.6813 C.ar           1 <1>                0.0000
     27 C27          3.7665   6.6073   4.5543 C.ar           1 <1>                0.0000
     28 O28          5.0615   7.0016   4.4346 O.3            1 <1>                0.0000
     29 C29          5.6071   7.7716   5.5076 C.3            1 <1>                0.0000
     30 F30          5.5484   7.0286   6.6916 F              1 <1>                0.0000
     31 F31          6.9392   8.0903   5.2227 F              1 <1>                0.0000
     32 F32          4.8679   8.9496   5.6592 F              1 <1>                0.0000
     33 C33          3.1744   5.8524   3.5519 C.ar           1 <1>                0.0000
     34 C34         -1.8641  -2.1084  -5.0975 C.ar           1 <1>                0.0000
     35 C35         -2.4489  -2.8650  -6.1009 C.ar           1 <1>                0.0000
     36 O36         -2.3661  -2.4578  -7.3958 O.3            1 <1>                0.0000
     37 C37         -1.6615  -1.2407  -7.6493 C.3            1 <1>                0.0000
     38 C38         -3.1150  -4.0429  -5.7839 C.ar           1 <1>                0.0000
     39 O39         -3.6898  -4.7867  -6.7691 O.3            1 <1>                0.0000
     40 C40         -2.8788  -5.7926  -7.3795 C.3            1 <1>                0.0000
     41 H41         -4.4142  -5.1824  -2.2033 H              1 <1>                0.0000
     42 H42         -4.4623  -6.9027  -2.6576 H              1 <1>                0.0000
     43 H43         -2.8983  -6.0971  -2.3868 H              1 <1>                0.0000
     44 H44         -2.6836  -4.0203  -2.4289 H              1 <1>                0.0000
     45 H45         -1.3294  -0.7925  -2.8384 H              1 <1>                0.0000
     46 H46         -0.2012  -5.4176  -0.5544 H              1 <1>                0.0000
     47 H47          0.6618  -4.0942   1.3565 H              1 <1>                0.0000
     48 H48         -1.0712  -1.5655   2.6899 H              1 <1>                0.0000
     49 H49          0.1140  -2.8753   2.9072 H              1 <1>                0.0000
     50 H50          0.1471  -1.2962   4.8269 H              1 <1>                0.0000
     51 H51          1.6957  -1.2804   3.9479 H              1 <1>                0.0000
     52 H52         -0.5805   0.7286   3.6194 H              1 <1>                0.0000
     53 H53          0.9747   1.0280   4.4342 H              1 <1>                0.0000
     54 H54          2.1827   0.6053   2.3254 H              1 <1>                0.0000
     55 H55          0.9178   0.2366   0.2296 H              1 <1>                0.0000
     56 H56         -0.6078   0.2287   1.1461 H              1 <1>                0.0000
     57 H57          1.8949   2.9376   3.6486 H              1 <1>                0.0000
     58 H58          1.6650   4.8936   1.6243 H              1 <1>                0.0000
     59 H59          0.1440   4.8612   2.5483 H              1 <1>                0.0000
     60 H60          0.1011   5.4915   4.8931 H              1 <1>                0.0000
     61 H61          1.1504   6.8222   6.6778 H              1 <1>                0.0000
     62 H62          3.4958   7.5385   6.4646 H              1 <1>                0.0000
     63 H63          3.7412   5.5807   2.6736 H              1 <1>                0.0000
     64 H64         -1.3429  -1.1952  -5.3441 H              1 <1>                0.0000
     65 H65         -0.6314  -1.3392  -7.3067 H              1 <1>                0.0000
     66 H66         -1.6703  -1.0318  -8.7190 H              1 <1>                0.0000
     67 H67         -2.1453  -0.4228  -7.1154 H              1 <1>                0.0000
     68 H68         -2.0050  -5.3274  -7.8357 H              1 <1>                0.0000
     69 H69         -2.5562  -6.5078  -6.6229 H              1 <1>                0.0000
     70 H70         -3.4566  -6.3098  -8.1455 H              1 <1>                0.0000
@<TRIPOS>BOND
    1    1    2 1     
    2    1   41 1     
    3    1   42 1     
    4    1   43 1     
    5    2    3 1     
    6    3   38 ar    
    7    3    4 ar    
    8    4    5 ar    
    9    4   44 1     
   10    5    6 1     
   11    5   34 ar    
   12    6    7 1     
   13    6   45 1     
   14    7   12 ar    
   15    7    8 ar    
   16    8    9 ar    
   17    9   10 ar    
   18    9   46 1     
   19   10   11 ar    
   20   10   47 1     
   21   11   12 ar    
   22   11   13 1     
   23   13   18 1     
   24   13   14 1     
   25   14   15 1     
   26   14   48 1     
   27   14   49 1     
   28   15   16 1     
   29   15   50 1     
   30   15   51 1     
   31   16   17 1     
   32   16   52 1     
   33   16   53 1     
   34   17   18 1     
   35   17   19 1     
   36   17   54 1     
   37   18   55 1     
   38   18   56 1     
   39   19   20 2     
   40   19   21 am    
   41   21   22 1     
   42   21   57 1     
   43   22   23 1     
   44   22   58 1     
   45   22   59 1     
   46   23   33 ar    
   47   23   24 ar    
   48   24   25 ar    
   49   24   60 1     
   50   25   26 ar    
   51   25   61 1     
   52   26   27 ar    
   53   26   62 1     
   54   27   28 1     
   55   27   33 ar    
   56   28   29 1     
   57   29   30 1     
   58   29   31 1     
   59   29   32 1     
   60   33   63 1     
   61   34   35 ar    
   62   34   64 1     
   63   35   36 1     
   64   35   38 ar    
   65   36   37 1     
   66   37   65 1     
   67   37   66 1     
   68   37   67 1     
   69   38   39 1     
   70   39   40 1     
   71   40   68 1     
   72   40   69 1     
   73   40   70 1     
@<TRIPOS>SUBSTRUCTURE
      1 ****           1
@<TRIPOS>SET
DONOR_HYDROGENS      STATIC     ATOMS    <user>   **** ""
2 45 57
ATOM$RED        STATIC     ATOMS    COLORGROUP SYSTEM
2 45 57
