#       Name:                OFL
#       Creating user name   gbret
#       Creation time:       Fri Sep  9 13:42:48 2016


#       File generated by GOLD software.
#

@<TRIPOS>MOLECULE
OFL
    29    30     1
SMALL
NO_CHARGES


@<TRIPOS>ATOM
      1 O1          -1.6004  -0.8227  -3.2352 O.co2          1 <1>                0.0000
      2 C2          -0.9047  -0.7495  -2.2313 C.2            1 <1>                0.0000
      3 O3           0.1601  -0.1476  -2.2674 O.co2          1 <1>                0.0000
      4 C4          -1.3509  -1.3796  -0.9799 C.ar           1 <1>                0.0000
      5 C5          -2.5930  -2.0210  -0.9181 C.ar           1 <1>                0.0000
      6 C6          -3.0044  -2.6088   0.2568 C.ar           1 <1>                0.0000
      7 C7          -2.1945  -2.5694   1.3819 C.ar           1 <1>                0.0000
      8 C8          -0.9675  -1.9411   1.3386 C.ar           1 <1>                0.0000
      9 C9          -0.5304  -1.3468   0.1605 C.ar           1 <1>                0.0000
     10 N10          0.7038  -0.7139   0.1143 N.pl3          1 <1>                0.0000
     11 C11          0.7821   0.6750   0.2456 C.ar           1 <1>                0.0000
     12 C12         -0.3600   1.4128   0.5319 C.ar           1 <1>                0.0000
     13 C13         -0.2789   2.7851   0.6614 C.ar           1 <1>                0.0000
     14 C14          0.9373   3.4253   0.5065 C.ar           1 <1>                0.0000
     15 C15          2.0756   2.6942   0.2212 C.ar           1 <1>                0.0000
     16 C16          2.0028   1.3206   0.0959 C.ar           1 <1>                0.0000
     17 C17          3.2440   0.5246  -0.2151 C.3            1 <1>                0.0000
     18 F18          4.3366   1.3906  -0.3306 F              1 <1>                0.0000
     19 F19          3.4814  -0.3908   0.8158 F              1 <1>                0.0000
     20 F20          3.0662  -0.1650  -1.4193 F              1 <1>                0.0000
     21 H21         -3.2282  -2.0546  -1.7909 H              1 <1>                0.0000
     22 H22         -3.9635  -3.1030   0.3027 H              1 <1>                0.0000
     23 H23         -2.5271  -3.0338   2.2985 H              1 <1>                0.0000
     24 H24         -0.3435  -1.9150   2.2197 H              1 <1>                0.0000
     25 H25          1.5121  -1.2358  -0.0091 H              1 <1>                0.0000
     26 H26         -1.3100   0.9135   0.6526 H              1 <1>                0.0000
     27 H27         -1.1663   3.3592   0.8836 H              1 <1>                0.0000
     28 H28          0.9978   4.4988   0.6084 H              1 <1>                0.0000
     29 H29          3.0236   3.1973   0.1002 H              1 <1>                0.0000
@<TRIPOS>BOND
    1    1    2 ar    
    2    2    3 ar    
    3    2    4 1     
    4    4    9 ar    
    5    4    5 ar    
    6    5    6 ar    
    7    5   21 1     
    8    6    7 ar    
    9    6   22 1     
   10    7    8 ar    
   11    7   23 1     
   12    8    9 ar    
   13    8   24 1     
   14    9   10 1     
   15   10   11 1     
   16   10   25 1     
   17   11   16 ar    
   18   11   12 ar    
   19   12   13 ar    
   20   12   26 1     
   21   13   14 ar    
   22   13   27 1     
   23   14   15 ar    
   24   14   28 1     
   25   15   16 ar    
   26   15   29 1     
   27   16   17 1     
   28   17   18 1     
   29   17   19 1     
   30   17   20 1     
@<TRIPOS>SUBSTRUCTURE
      1 ****           1
@<TRIPOS>SET
DONOR_HYDROGENS      STATIC     ATOMS    <user>   **** ""
1 25
ATOM$RED        STATIC     ATOMS    COLORGROUP SYSTEM
1 25
