#       Name:                OGA
#       Creating user name   gbret
#       Creation time:       Fri Sep  9 13:43:01 2016


#       File generated by GOLD software.
#

@<TRIPOS>MOLECULE
OGA
    13    12     1
SMALL
NO_CHARGES


@<TRIPOS>ATOM
      1 O1           2.3738  -1.2093  -0.0174 O.co2          1 <1>                0.0000
      2 C2           2.3572   0.0098  -0.0107 C.2            1 <1>                0.0000
      3 O3           3.4047   0.6337  -0.0173 O.co2          1 <1>                0.0000
      4 C4           1.0421   0.7455  -0.0004 C.3            1 <1>                0.0000
      5 N5          -0.0584  -0.2215  -0.0005 N.am           1 <1>                0.0000
      6 C6          -1.3351   0.2104   0.0079 C.2            1 <1>                0.0000
      7 O7          -1.5729   1.4000   0.0155 O.2            1 <1>                0.0000
      8 C8          -2.4595  -0.7777   0.0079 C.2            1 <1>                0.0000
      9 O9          -3.6153  -0.3866   0.0155 O.co2          1 <1>                0.0000
     10 O10         -2.2203  -1.9742   0.0002 O.co2          1 <1>                0.0000
     11 H11          0.9800   1.3665   0.8932 H              1 <1>                0.0000
     12 H12          0.9716   1.3761  -0.8867 H              1 <1>                0.0000
     13 H13          0.1317  -1.1727  -0.0066 H              1 <1>                0.0000
@<TRIPOS>BOND
    1    1    2 ar    
    2    2    3 ar    
    3    2    4 1     
    4    4    5 1     
    5    4   11 1     
    6    4   12 1     
    7    5    6 am    
    8    5   13 1     
    9    6    7 2     
   10    6    8 1     
   11    8    9 ar    
   12    8   10 ar    
@<TRIPOS>SUBSTRUCTURE
      1 ****           1
@<TRIPOS>SET
DONOR_HYDROGENS      STATIC     ATOMS    <user>   **** ""
1 13
ATOM$RED        STATIC     ATOMS    COLORGROUP SYSTEM
1 13
