#       Name:                OIO
#       Creating user name   gbret
#       Creation time:       Fri Sep  9 13:44:42 2016


#       File generated by GOLD software.
#

@<TRIPOS>MOLECULE
OIO
    32    32     1
SMALL
NO_CHARGES


@<TRIPOS>ATOM
      1 O1           5.9644  -0.7615   0.0070 O.co2          1 <1>                0.0000
      2 C2           5.9478   0.4577   0.0137 C.2            1 <1>                0.0000
      3 O3           6.9953   1.0816   0.0071 O.co2          1 <1>                0.0000
      4 C4           4.6327   1.1934   0.0240 C.3            1 <1>                0.0000
      5 C5           3.4833   0.1834   0.0239 C.3            1 <1>                0.0000
      6 C6           2.1481   0.9303   0.0343 C.3            1 <1>                0.0000
      7 C7           0.9988  -0.0797   0.0343 C.3            1 <1>                0.0000
      8 C8          -0.3365   0.6673   0.0447 C.3            1 <1>                0.0000
      9 C9          -1.4858  -0.3427   0.0446 C.3            1 <1>                0.0000
     10 C10         -2.8211   0.4042   0.0550 C.3            1 <1>                0.0000
     11 N11         -3.9216  -0.5628   0.0550 N.pl3          1 <1>                0.0000
     12 C12         -4.5333  -1.0971  -1.0468 C.2            1 <1>                0.0000
     13 C13         -5.4852  -1.9360  -0.5956 C.2            1 <1>                0.0000
     14 N14         -5.4555  -1.9144   0.7452 N.2            1 <1>                0.0000
     15 C15         -4.5180  -1.0979   1.1419 C.2            1 <1>                0.0000
     16 H16          4.5706   1.8143   0.9176 H              1 <1>                0.0000
     17 H17          4.5622   1.8239  -0.8623 H              1 <1>                0.0000
     18 H18          3.5454  -0.4376  -0.8698 H              1 <1>                0.0000
     19 H19          3.5538  -0.4473   0.9102 H              1 <1>                0.0000
     20 H20          2.0861   1.5513   0.9280 H              1 <1>                0.0000
     21 H21          2.0776   1.5609  -0.8519 H              1 <1>                0.0000
     22 H22          1.0608  -0.7006  -0.8594 H              1 <1>                0.0000
     23 H23          1.0692  -0.7103   0.9205 H              1 <1>                0.0000
     24 H24         -0.3985   1.2882   0.9383 H              1 <1>                0.0000
     25 H25         -0.4069   1.2979  -0.8416 H              1 <1>                0.0000
     26 H26         -1.4238  -0.9637  -0.8490 H              1 <1>                0.0000
     27 H27         -1.4154  -0.9733   0.9309 H              1 <1>                0.0000
     28 H28         -2.8831   1.0252   0.9487 H              1 <1>                0.0000
     29 H29         -2.8915   1.0349  -0.8312 H              1 <1>                0.0000
     30 H30         -4.2980  -0.8862  -2.0796 H              1 <1>                0.0000
     31 H31         -6.1551  -2.5232  -1.2062 H              1 <1>                0.0000
     32 H32         -4.2655  -0.8811   2.1693 H              1 <1>                0.0000
@<TRIPOS>BOND
    1    1    2 ar    
    2    2    3 ar    
    3    2    4 1     
    4    4    5 1     
    5    4   16 1     
    6    4   17 1     
    7    5    6 1     
    8    5   18 1     
    9    5   19 1     
   10    6    7 1     
   11    6   20 1     
   12    6   21 1     
   13    7    8 1     
   14    7   22 1     
   15    7   23 1     
   16    8    9 1     
   17    8   24 1     
   18    8   25 1     
   19    9   10 1     
   20    9   26 1     
   21    9   27 1     
   22   10   11 1     
   23   10   28 1     
   24   10   29 1     
   25   11   15 1     
   26   11   12 1     
   27   12   13 2     
   28   12   30 1     
   29   13   14 1     
   30   13   31 1     
   31   14   15 2     
   32   15   32 1     
@<TRIPOS>SUBSTRUCTURE
      1 ****           1
