#       Name:                OMG
#       Creating user name   gbret
#       Creation time:       Fri Sep  9 13:47:20 2016


#       File generated by GOLD software.
#

@<TRIPOS>MOLECULE
OMG
    39    41     1
SMALL
NO_CHARGES


@<TRIPOS>ATOM
      1 C1          -0.2000   3.3687   0.4809 C.3            1 <1>                0.0000
      2 O2          -0.1806   1.9398   0.4730 O.3            1 <1>                0.0000
      3 C3           0.4691   1.3736  -0.6669 C.3            1 <1>                0.0000
      4 C4           1.9402   1.0015  -0.3364 C.3            1 <1>                0.0000
      5 O5           2.0677   0.5570   1.0158 O.3            1 <1>                0.0000
      6 C6           2.1800  -0.1618  -1.3315 C.3            1 <1>                0.0000
      7 C7           3.2904  -1.0802  -0.8172 C.3            1 <1>                0.0000
      8 O8           3.5769  -2.0775  -1.7998 O.3            1 <1>                0.0000
      9 P9           4.6963  -3.2160  -1.5931 P.3            1 <1>                0.0000
     10 O10          4.2730  -4.1567  -0.4140 O.co2          1 <1>                0.0000
     11 O11          4.8352  -4.0566  -2.9078 O.co2          1 <1>                0.0000
     12 O12          6.0702  -2.5425  -1.2563 O.co2          1 <1>                0.0000
     13 O13          0.9321  -0.8710  -1.3871 O.3            1 <1>                0.0000
     14 C14         -0.1436   0.0022  -1.0236 C.3            1 <1>                0.0000
     15 N15         -0.8547  -0.5413   0.1361 N.pl3          1 <1>                0.0000
     16 C16         -0.3463  -1.4047   1.0628 C.2            1 <1>                0.0000
     17 N17         -1.2532  -1.6789   1.9544 N.2            1 <1>                0.0000
     18 C18         -2.3935  -1.0107   1.6546 C.2            1 <1>                0.0000
     19 C19         -2.1484  -0.2715   0.4917 C.2            1 <1>                0.0000
     20 N20         -3.1197   0.4880  -0.0281 N.2            1 <1>                0.0000
     21 C21         -4.3055   0.5538   0.5348 C.2            1 <1>                0.0000
     22 N22         -5.2705   1.3459  -0.0348 N.pl3          1 <1>                0.0000
     23 N23         -4.6046  -0.1425   1.6678 N.am           1 <1>                0.0000
     24 H24         -5.4900  -0.0721   2.0579 H              1 <1>                0.0000
     25 C25         -3.6729  -0.9276   2.2525 C.2            1 <1>                0.0000
     26 O26         -3.9307  -1.5543   3.2660 O.2            1 <1>                0.0000
     27 H27          0.8226   3.7460   0.4731 H              1 <1>                0.0000
     28 H28         -0.7272   3.7298  -0.4022 H              1 <1>                0.0000
     29 H29         -0.7102   3.7202   1.3777 H              1 <1>                0.0000
     30 H30          0.4194   2.0537  -1.5172 H              1 <1>                0.0000
     31 H31          2.6114   1.8363  -0.5378 H              1 <1>                0.0000
     32 H32          2.9695   0.3139   1.2665 H              1 <1>                0.0000
     33 H33          2.4388   0.2294  -2.3154 H              1 <1>                0.0000
     34 H34          4.1877  -0.4924  -0.6238 H              1 <1>                0.0000
     35 H35          2.9656  -1.5617   0.1052 H              1 <1>                0.0000
     36 H36         -0.8309   0.1113  -1.8626 H              1 <1>                0.0000
     37 H37          0.6583  -1.8012   1.0567 H              1 <1>                0.0000
     38 H38         -5.0727   1.8470  -0.8413 H              1 <1>                0.0000
     39 H39         -6.1504   1.4046   0.3692 H              1 <1>                0.0000
@<TRIPOS>BOND
    1    1    2 1     
    2    1   27 1     
    3    1   28 1     
    4    1   29 1     
    5    2    3 1     
    6    3   14 1     
    7    3    4 1     
    8    3   30 1     
    9    4    5 1     
   10    4    6 1     
   11    4   31 1     
   12    5   32 1     
   13    6    7 1     
   14    6   13 1     
   15    6   33 1     
   16    7    8 1     
   17    7   34 1     
   18    7   35 1     
   19    8    9 1     
   20    9   10 ar    
   21    9   11 ar    
   22    9   12 ar    
   23   13   14 1     
   24   14   15 1     
   25   14   36 1     
   26   15   19 1     
   27   15   16 1     
   28   16   17 2     
   29   16   37 1     
   30   17   18 1     
   31   18   25 1     
   32   18   19 2     
   33   19   20 1     
   34   20   21 2     
   35   21   22 1     
   36   21   23 1     
   37   22   38 1     
   38   22   39 1     
   39   23   24 1     
   40   23   25 am    
   41   25   26 2     
@<TRIPOS>SUBSTRUCTURE
      1 ****           1
@<TRIPOS>SET
DONOR_HYDROGENS      STATIC     ATOMS    <user>   **** ""
4 32 38 39 24
ATOM$RED        STATIC     ATOMS    COLORGROUP SYSTEM
4 32 38 39 24
