#       Name:                OTA
#       Creating user name   gbret
#       Creation time:       Fri Sep  9 13:53:31 2016


#       File generated by GOLD software.
#

@<TRIPOS>MOLECULE
OTA
    27    28     1
SMALL
NO_CHARGES


@<TRIPOS>ATOM
      1 O1           3.6589  -4.9777  -0.0438 O.co2          1 <1>                0.0000
      2 C2           3.6423  -3.7573  -0.0371 C.2            1 <1>                0.0000
      3 O3           4.6909  -3.1328  -0.0437 O.co2          1 <1>                0.0000
      4 C4           2.3376  -3.0275  -0.0269 C.2            1 <1>                0.0000
      5 O5           1.2950  -3.6485  -0.0253 O.2            1 <1>                0.0000
      6 N6           2.3193  -1.6799  -0.0195 N.am           1 <1>                0.0000
      7 C7           1.1134  -1.0053  -0.0101 C.2            1 <1>                0.0000
      8 S8          -0.4156  -1.7554   0.0005 S.3            1 <1>                0.0000
      9 C9          -1.2628  -0.2197   0.0088 C.2            1 <1>                0.0000
     10 C10         -2.7681  -0.0419   0.0225 C.3            1 <1>                0.0000
     11 N11         -3.0768   1.3308   0.4472 N.4            1 <1>                0.0000
     12 H12         -4.0666   1.4987   0.3462 H              1 <1>                0.0000
     13 H13         -2.8132   1.4504   1.4137 H              1 <1>                0.0000
     14 C14         -2.3319   2.2870  -0.3830 C.3            1 <1>                0.0000
     15 C15         -0.8503   2.2541   0.0068 C.3            1 <1>                0.0000
     16 C16         -0.3962   0.8024   0.0030 C.2            1 <1>                0.0000
     17 C17          0.9836   0.3609  -0.0021 C.2            1 <1>                0.0000
     18 C18          2.1218   1.2773  -0.0025 C.2            1 <1>                0.0000
     19 O19          1.9335   2.4877   0.0016 O.co2          1 <1>                0.0000
     20 O20          3.2641   0.8352  -0.0069 O.co2          1 <1>                0.0000
     21 H21          3.1527  -1.1835  -0.0208 H              1 <1>                0.0000
     22 H22         -3.1655  -0.2133  -0.9779 H              1 <1>                0.0000
     23 H23         -3.2135  -0.7498   0.7215 H              1 <1>                0.0000
     24 H24         -2.4375   2.0157  -1.4335 H              1 <1>                0.0000
     25 H25         -2.7271   3.2905  -0.2251 H              1 <1>                0.0000
     26 H26         -0.2664   2.8248  -0.7153 H              1 <1>                0.0000
     27 H27         -0.7218   2.6778   1.0029 H              1 <1>                0.0000
@<TRIPOS>BOND
    1    1    2 ar    
    2    2    3 ar    
    3    2    4 1     
    4    4    5 2     
    5    4    6 am    
    6    6    7 1     
    7    6   21 1     
    8    7   17 2     
    9    7    8 1     
   10    8    9 1     
   11    9   16 2     
   12    9   10 1     
   13   10   11 1     
   14   10   22 1     
   15   10   23 1     
   16   11   12 1     
   17   11   13 1     
   18   11   14 1     
   19   14   15 1     
   20   14   24 1     
   21   14   25 1     
   22   15   16 1     
   23   15   26 1     
   24   15   27 1     
   25   16   17 1     
   26   17   18 1     
   27   18   19 ar    
   28   18   20 ar    
@<TRIPOS>SUBSTRUCTURE
      1 ****           1
@<TRIPOS>SET
DONOR_HYDROGENS      STATIC     ATOMS    <user>   **** ""
3 21 12 13
ATOM$RED        STATIC     ATOMS    COLORGROUP SYSTEM
3 21 12 13
