#       Name:                OTR
#       Creating user name   gbret
#       Creation time:       Fri Sep  9 13:54:27 2016


#       File generated by GOLD software.
#

@<TRIPOS>MOLECULE
OTR
    23    23     1
SMALL
NO_CHARGES


@<TRIPOS>ATOM
      1 N1           1.3421  -1.9873  -2.4386 N.4            1 <1>                0.0000
      2 H2           1.3558  -2.9962  -2.4442 H              1 <1>                0.0000
      3 H3           2.2887  -1.6380  -2.4458 H              1 <1>                0.0000
      4 H4           0.8541  -1.6530  -3.2561 H              1 <1>                0.0000
      5 C5           0.6545  -1.5135  -1.2300 C.3            1 <1>                0.0000
      6 C6           0.6338   0.0163  -1.2216 C.3            1 <1>                0.0000
      7 O7          -0.1559   0.4880  -2.3152 O.3            1 <1>                0.0000
      8 C8           0.0389   0.5035   0.0745 C.ar           1 <1>                0.0000
      9 C9          -1.3334   0.5125   0.2437 C.ar           1 <1>                0.0000
     10 C10         -1.8812   0.9586   1.4308 C.ar           1 <1>                0.0000
     11 C11         -1.0532   1.3974   2.4538 C.ar           1 <1>                0.0000
     12 O12         -1.5897   1.8363   3.6228 O.3            1 <1>                0.0000
     13 C13          0.3234   1.3869   2.2817 C.ar           1 <1>                0.0000
     14 C14          0.8664   0.9354   1.0945 C.ar           1 <1>                0.0000
     15 H15         -0.3681  -1.8908  -1.2223 H              1 <1>                0.0000
     16 H16          1.1817  -1.8746  -0.3470 H              1 <1>                0.0000
     17 H17          1.6516   0.3940  -1.3189 H              1 <1>                0.0000
     18 H18         -1.0756   0.1900  -2.2936 H              1 <1>                0.0000
     19 H19         -1.9775   0.1708  -0.5530 H              1 <1>                0.0000
     20 H20         -2.9531   0.9661   1.5623 H              1 <1>                0.0000
     21 H21         -1.7103   1.1423   4.2853 H              1 <1>                0.0000
     22 H22          0.9700   1.7283   3.0765 H              1 <1>                0.0000
     23 H23          1.9380   0.9267   0.9601 H              1 <1>                0.0000
@<TRIPOS>BOND
    1    1    2 1     
    2    1    3 1     
    3    1    4 1     
    4    1    5 1     
    5    5    6 1     
    6    5   15 1     
    7    5   16 1     
    8    6    7 1     
    9    6    8 1     
   10    6   17 1     
   11    7   18 1     
   12    8   14 ar    
   13    8    9 ar    
   14    9   10 ar    
   15    9   19 1     
   16   10   11 ar    
   17   10   20 1     
   18   11   12 1     
   19   11   13 ar    
   20   12   21 1     
   21   13   14 ar    
   22   13   22 1     
   23   14   23 1     
@<TRIPOS>SUBSTRUCTURE
      1 ****           1
@<TRIPOS>SET
DONOR_HYDROGENS      STATIC     ATOMS    <user>   **** ""
5 2 3 4 18 21
ATOM$RED        STATIC     ATOMS    COLORGROUP SYSTEM
5 2 3 4 18 21
