#       Name:                P2P
#       Creating user name   gbret
#       Creation time:       Fri Sep  9 14:02:23 2016


#       File generated by GOLD software.
#

@<TRIPOS>MOLECULE
P2P
    34    36     1
SMALL
NO_CHARGES


@<TRIPOS>ATOM
      1 O1           0.9372   3.0702   0.8170 O.3            1 <1>                0.0000
      2 C2           0.8880   1.6421   0.8329 C.3            1 <1>                0.0000
      3 C3          -0.5633   1.1527   1.0344 C.3            1 <1>                0.0000
      4 C4          -1.3961   2.2289   1.7338 C.3            1 <1>                0.0000
      5 O5          -2.6995   1.7149   2.0147 O.3            1 <1>                0.0000
      6 P6          -3.8434   2.5786   2.7479 P.3            1 <1>                0.0000
      7 O7          -4.2534   3.7840   1.8351 O.co2          1 <1>                0.0000
      8 O8          -5.0945   1.6727   3.0099 O.co2          1 <1>                0.0000
      9 O9          -3.2955   3.1195   4.1123 O.co2          1 <1>                0.0000
     10 O10         -1.0626   0.9191  -0.3005 O.3            1 <1>                0.0000
     11 C11          0.0323   0.3043  -1.0141 C.3            1 <1>                0.0000
     12 C12          1.2888   1.0711  -0.5457 C.3            1 <1>                0.0000
     13 O13          1.5978   2.1291  -1.4552 O.3            1 <1>                0.0000
     14 N14          0.1389  -1.1135  -0.6611 N.pl3          1 <1>                0.0000
     15 C15         -0.3955  -1.7122   0.4276 C.2            1 <1>                0.0000
     16 N16         -0.1060  -2.9836   0.4299 N.2            1 <1>                0.0000
     17 C17          0.6320  -3.2858  -0.6547 C.ar           1 <1>                0.0000
     18 N18          1.1817  -4.4046  -1.1303 N.ar           1 <1>                0.0000
     19 C19          1.8711  -4.3826  -2.2556 C.ar           1 <1>                0.0000
     20 O20          2.4165  -5.5365  -2.7112 O.3            1 <1>                0.0000
     21 N21          2.0482  -3.2709  -2.9559 N.ar           1 <1>                0.0000
     22 C22          1.5360  -2.1184  -2.5537 C.ar           1 <1>                0.0000
     23 C23          0.7986  -2.0897  -1.3803 C.ar           1 <1>                0.0000
     24 H24          1.8153   3.4314   0.6339 H              1 <1>                0.0000
     25 H25          1.5382   1.2472   1.6136 H              1 <1>                0.0000
     26 H26         -0.5754   0.2290   1.6129 H              1 <1>                0.0000
     27 H27         -0.9099   2.5157   2.6662 H              1 <1>                0.0000
     28 H28         -1.4814   3.1008   1.0853 H              1 <1>                0.0000
     29 H29         -0.1035   0.4192  -2.0895 H              1 <1>                0.0000
     30 H30          2.1357   0.3921  -0.4463 H              1 <1>                0.0000
     31 H31          2.3786   2.6438  -1.2092 H              1 <1>                0.0000
     32 H32         -0.9779  -1.2097   1.1856 H              1 <1>                0.0000
     33 H33          1.8369  -6.0404  -3.2988 H              1 <1>                0.0000
     34 H34          1.6862  -1.2182  -3.1312 H              1 <1>                0.0000
@<TRIPOS>BOND
    1    1    2 1     
    2    1   24 1     
    3    2   12 1     
    4    2    3 1     
    5    2   25 1     
    6    3    4 1     
    7    3   10 1     
    8    3   26 1     
    9    4    5 1     
   10    4   27 1     
   11    4   28 1     
   12    5    6 1     
   13    6    7 ar    
   14    6    8 ar    
   15    6    9 ar    
   16   10   11 1     
   17   11   12 1     
   18   11   14 1     
   19   11   29 1     
   20   12   13 1     
   21   12   30 1     
   22   13   31 1     
   23   14   23 1     
   24   14   15 1     
   25   15   16 2     
   26   15   32 1     
   27   16   17 1     
   28   17   23 ar    
   29   17   18 ar    
   30   18   19 ar    
   31   19   20 1     
   32   19   21 ar    
   33   20   33 1     
   34   21   22 ar    
   35   22   23 ar    
   36   22   34 1     
@<TRIPOS>SUBSTRUCTURE
      1 ****           1
@<TRIPOS>SET
DONOR_HYDROGENS      STATIC     ATOMS    <user>   **** ""
3 24 31 33
ATOM$RED        STATIC     ATOMS    COLORGROUP SYSTEM
3 24 31 33
