#       Name:                P34
#       Creating user name   gbret
#       Creation time:       Fri Sep  9 14:03:13 2016


#       File generated by GOLD software.
#

@<TRIPOS>MOLECULE
P34
    40    42     1
SMALL
NO_CHARGES


@<TRIPOS>ATOM
      1 C1           2.3411   5.6630  -0.4419 C.3            1 <1>                0.0000
      2 N2           2.4171   4.1963  -0.4749 N.4            1 <1>                0.0000
      3 H3           2.4220   3.8813  -1.4335 H              1 <1>                0.0000
      4 C4           3.6493   3.7547   0.1919 C.3            1 <1>                0.0000
      5 C5           1.2539   3.6299   0.2208 C.3            1 <1>                0.0000
      6 C6           1.2668   2.1294   0.0814 C.2            1 <1>                0.0000
      7 O7           2.1575   1.5854  -0.5366 O.2            1 <1>                0.0000
      8 N8           0.2888   1.3920   0.6436 N.am           1 <1>                0.0000
      9 C9           0.2465   0.0078   0.4333 C.ar           1 <1>                0.0000
     10 C10          1.4308  -0.7172   0.3346 C.ar           1 <1>                0.0000
     11 C11          1.4018  -2.0788   0.1283 C.ar           1 <1>                0.0000
     12 C12          0.1845  -2.7445   0.0159 C.ar           1 <1>                0.0000
     13 N13          0.1634  -4.1151  -0.1916 N.am           1 <1>                0.0000
     14 H14          1.0056  -4.5920  -0.2557 H              1 <1>                0.0000
     15 C15         -0.9845  -4.8062  -0.3067 C.2            1 <1>                0.0000
     16 O16         -0.9504  -6.0092  -0.4875 O.2            1 <1>                0.0000
     17 C17         -2.2806  -4.1179  -0.2150 C.ar           1 <1>                0.0000
     18 C18         -3.4839  -4.8125  -0.3307 C.ar           1 <1>                0.0000
     19 C19         -4.6775  -4.1290  -0.2384 C.ar           1 <1>                0.0000
     20 C20         -4.6926  -2.7575  -0.0316 C.ar           1 <1>                0.0000
     21 C21         -3.5127  -2.0524   0.0854 C.ar           1 <1>                0.0000
     22 C22         -2.2982  -2.7240  -0.0049 C.ar           1 <1>                0.0000
     23 C23         -1.0099  -2.0154   0.1152 C.ar           1 <1>                0.0000
     24 C24         -0.9729  -0.6389   0.3296 C.ar           1 <1>                0.0000
     25 H25          3.2042   6.0833  -0.9581 H              1 <1>                0.0000
     26 H26          1.4268   5.9906  -0.9367 H              1 <1>                0.0000
     27 H27          2.3359   6.0033   0.5936 H              1 <1>                0.0000
     28 H28          3.6441   4.0950   1.2274 H              1 <1>                0.0000
     29 H29          3.7058   2.6665   0.1673 H              1 <1>                0.0000
     30 H30          4.5125   4.1750  -0.3244 H              1 <1>                0.0000
     31 H31          1.2964   3.8971   1.2766 H              1 <1>                0.0000
     32 H32          0.3389   4.0277  -0.2181 H              1 <1>                0.0000
     33 H33         -0.3859   1.8198   1.1938 H              1 <1>                0.0000
     34 H34          2.3795  -0.2081   0.4200 H              1 <1>                0.0000
     35 H35          2.3266  -2.6317   0.0532 H              1 <1>                0.0000
     36 H36         -3.4809  -5.8804  -0.4921 H              1 <1>                0.0000
     37 H37         -5.6098  -4.6666  -0.3283 H              1 <1>                0.0000
     38 H38         -5.6364  -2.2371   0.0379 H              1 <1>                0.0000
     39 H39         -3.5320  -0.9847   0.2467 H              1 <1>                0.0000
     40 H40         -1.8923  -0.0779   0.4091 H              1 <1>                0.0000
@<TRIPOS>BOND
    1    1    2 1     
    2    1   25 1     
    3    1   26 1     
    4    1   27 1     
    5    2    3 1     
    6    2    4 1     
    7    2    5 1     
    8    4   28 1     
    9    4   29 1     
   10    4   30 1     
   11    5    6 1     
   12    5   31 1     
   13    5   32 1     
   14    6    7 2     
   15    6    8 am    
   16    8    9 1     
   17    8   33 1     
   18    9   24 ar    
   19    9   10 ar    
   20   10   11 ar    
   21   10   34 1     
   22   11   12 ar    
   23   11   35 1     
   24   12   23 ar    
   25   12   13 1     
   26   13   14 1     
   27   13   15 am    
   28   15   16 2     
   29   15   17 1     
   30   17   22 ar    
   31   17   18 ar    
   32   18   19 ar    
   33   18   36 1     
   34   19   20 ar    
   35   19   37 1     
   36   20   21 ar    
   37   20   38 1     
   38   21   22 ar    
   39   21   39 1     
   40   22   23 1     
   41   23   24 ar    
   42   24   40 1     
@<TRIPOS>SUBSTRUCTURE
      1 ****           1
@<TRIPOS>SET
DONOR_HYDROGENS      STATIC     ATOMS    <user>   **** ""
3 3 33 14
ATOM$RED        STATIC     ATOMS    COLORGROUP SYSTEM
3 3 33 14
