@<TRIPOS>MOLECULE
P5F
  98  103    0    0    0
SMALL
NO_CHARGES


@<TRIPOS>ATOM
   1 C1            -4.7751     2.5205     1.7463 C.3     
   2 C2            -4.0423     1.2357     1.4573 C.ar    
   3 C3            -3.5902     0.9737     0.1753 C.ar    
   4 C4            -2.9173    -0.2066    -0.0904 C.ar    
   5 N5            -2.4537    -0.4878    -1.3833 N.pl3   
   6 C6            -2.4056     0.5710    -2.3946 C.3     
   7 C7            -1.0458     1.2699    -2.3369 C.3     
   8 O8            -0.0196     0.3468    -2.7070 O.3     
   9 C9            -1.0397     2.4544    -3.3054 C.3     
  10 O10           -2.0658     3.3775    -2.9354 O.3     
  11 C11            0.3201     3.1533    -3.2477 C.3     
  12 O12            1.3463     2.2302    -3.6178 O.3     
  13 C13            0.3262     4.3378    -4.2162 C.3     
  14 O14            1.5518     5.0596    -4.0782 O.3     
  15 P15            1.9001     6.3701    -4.9462 P.3     
  16 O16            2.0209     5.9832    -6.4371 O.co2   
  17 O17            0.7753     7.4153    -4.7748 O.co2   
  18 O18            3.2948     6.9945    -4.4391 O.3     
  19 P19            3.9845     8.4435    -4.5694 P.3     
  20 O20            4.5228     8.6304    -6.0055 O.co2   
  21 O21            2.9400     9.5403    -4.2641 O.co2   
  22 O22            5.2015     8.5547    -3.5213 O.3     
  23 C23            5.9477     9.7567    -3.3198 C.3     
  24 C24            7.0250     9.5166    -2.2603 C.3     
  25 O25            8.0492     8.6377    -2.7748 O.3     
  26 C26            9.2051     8.8715    -1.9412 C.3     
  27 C27            9.2298    10.4002    -1.7203 C.3     
  28 O28           10.0837    11.0307    -2.6771 O.3     
  29 C29            7.7626    10.8344    -1.9351 C.3     
  30 O30            7.6655    11.7461    -3.0311 O.3     
  31 N31            9.0604     8.1736    -0.6612 N.pl3   
  32 C32            7.8980     7.7054    -0.1247 C.2     
  33 N33            8.1347     7.1383     1.0225 N.2     
  34 C34            9.4601     7.2063     1.2941 C.ar    
  35 C35           10.2747     6.7769     2.3560 C.ar    
  36 N36            9.7306     6.1163     3.4434 N.pl3   
  37 N37           11.5796     7.0197     2.2912 N.ar    
  38 C38           12.1076     7.6491     1.2571 C.ar    
  39 N39           11.3842     8.0689     0.2408 N.ar    
  40 C40           10.0708     7.8660     0.2145 C.ar    
  41 C41           -2.0439    -1.7625    -1.6972 C.2     
  42 N42           -1.8537    -2.1343    -3.0060 N.am    
  43 H43           -2.0092    -1.4944    -3.7182 H       
  44 C44           -1.4516    -3.3843    -3.3027 C.2     
  45 O45           -1.2885    -3.6968    -4.4666 O.2     
  46 N46           -1.2269    -4.2947    -2.3387 N.am    
  47 H47           -0.9369    -5.1880    -2.5812 H       
  48 C48           -1.3997    -3.9798    -1.0387 C.2     
  49 O49           -1.1940    -4.8110    -0.1702 O.2     
  50 C50           -1.8195    -2.6838    -0.6962 C.2     
  51 N51           -2.0144    -2.3194     0.6538 N.pl3   
  52 C52           -1.5478    -3.1129     1.6652 C.2     
  53 C53           -1.1675    -2.5593     2.8375 C.2     
  54 C54           -0.8063    -3.3856     3.9241 C.2     
  55 N55           -0.4396    -2.8519     5.0543 N.2     
  56 C56           -0.0649    -3.7091     6.1816 C.3     
  57 C57            1.3938    -3.5082     6.5023 C.2     
  58 O58            2.0588    -2.7218     5.8496 O.co2   
  59 O59            1.9091    -4.1319     7.4144 O.co2   
  60 C60           -2.6977    -1.1266     0.9365 C.ar    
  61 C61           -3.1521    -0.8581     2.2158 C.ar    
  62 C62           -3.8197     0.3270     2.4743 C.ar    
  63 C63           -4.3150     0.6218     3.8667 C.3     
  64 H64           -4.0589     3.2908     2.0322 H       
  65 H65           -5.3151     2.8393     0.8548 H       
  66 H66           -5.4812     2.3606     2.5611 H       
  67 H67           -3.7625     1.6883    -0.6159 H       
  68 H68           -2.5486     0.1356    -3.3836 H       
  69 H69           -3.1954     1.2963    -2.1992 H       
  70 H70           -0.8641     1.6282    -1.3237 H       
  71 H71           -0.1177    -0.0135    -3.5990 H       
  72 H72           -1.2214     2.0961    -4.3187 H       
  73 H73           -1.9678     3.7378    -2.0434 H       
  74 H74            0.5018     3.5116    -2.2345 H       
  75 H75            1.2482     1.8699    -4.5098 H       
  76 H76            0.2334     3.9716    -5.2386 H       
  77 H77           -0.5114     4.9972    -3.9890 H       
  78 H78            6.4192    10.0530    -4.2568 H       
  79 H79            5.2778    10.5482    -2.9839 H       
  80 H80            6.5814     9.0972    -1.3573 H       
  81 H81           10.1124     8.5471    -2.4508 H       
  82 H82            9.5551    10.6345    -0.7067 H       
  83 H83           10.1363    11.9918    -2.5843 H       
  84 H84            7.3602    11.2831    -1.0269 H       
  85 H85            8.1612    12.5668    -2.9051 H       
  86 H86            6.9243     7.7929    -0.5835 H       
  87 H87            8.7765     5.9447     3.4790 H       
  88 H88           10.3032     5.8249     4.1701 H       
  89 H89           13.1729     7.8262     1.2450 H       
  90 H90           -1.4833    -4.1820     1.5267 H       
  91 H91           -1.1398    -1.4849     2.9435 H       
  92 H92           -0.8340    -4.4600     3.8181 H       
  93 H93           -0.6674    -3.4489     7.0519 H       
  94 H94           -0.2386    -4.7525     5.9182 H       
  95 H95           -2.9830    -1.5690     3.0110 H       
  96 H96           -3.5402     1.1483     4.4240 H       
  97 H97           -5.2084     1.2437     3.8105 H       
  98 H98           -4.5546    -0.3134     4.3727 H       
@<TRIPOS>BOND
   1    1    2 1
   2    1   64 1
   3    1   65 1
   4    1   66 1
   5    2   62 ar
   6    2    3 ar
   7    3    4 ar
   8    3   67 1
   9    4   60 ar
  10    4    5 1
  11    5    6 1
  12    5   41 1
  13    6    7 1
  14    6   68 1
  15    6   69 1
  16    7    8 1
  17    7    9 1
  18    7   70 1
  19    8   71 1
  20    9   10 1
  21    9   11 1
  22    9   72 1
  23   10   73 1
  24   11   12 1
  25   11   13 1
  26   11   74 1
  27   12   75 1
  28   13   14 1
  29   13   76 1
  30   13   77 1
  31   14   15 1
  32   15   16 ar
  33   15   17 ar
  34   15   18 1
  35   18   19 1
  36   19   20 ar
  37   19   21 ar
  38   19   22 1
  39   22   23 1
  40   23   24 1
  41   23   78 1
  42   23   79 1
  43   24   29 1
  44   24   25 1
  45   24   80 1
  46   25   26 1
  47   26   27 1
  48   26   31 1
  49   26   81 1
  50   27   28 1
  51   27   29 1
  52   27   82 1
  53   28   83 1
  54   29   30 1
  55   29   84 1
  56   30   85 1
  57   31   40 1
  58   31   32 1
  59   32   33 2
  60   32   86 1
  61   33   34 1
  62   34   40 ar
  63   34   35 ar
  64   35   36 1
  65   35   37 ar
  66   36   87 1
  67   36   88 1
  68   37   38 ar
  69   38   39 ar
  70   38   89 1
  71   39   40 ar
  72   41   50 2
  73   41   42 1
  74   42   43 1
  75   42   44 am
  76   44   45 2
  77   44   46 am
  78   46   47 1
  79   46   48 am
  80   48   49 2
  81   48   50 1
  82   50   51 1
  83   51   52 1
  84   51   60 1
  85   52   53 2
  86   52   90 1
  87   53   54 1
  88   53   91 1
  89   54   55 2
  90   54   92 1
  91   55   56 1
  92   56   57 1
  93   56   93 1
  94   56   94 1
  95   57   58 ar
  96   57   59 ar
  97   60   61 ar
  98   61   62 ar
  99   61   95 1
 100   62   63 1
 101   63   96 1
 102   63   97 1
 103   63   98 1





