#       Name:                P85
#       Creating user name   gbret
#       Creation time:       Fri Sep  9 14:09:01 2016


#       File generated by GOLD software.
#

@<TRIPOS>MOLECULE
P85
    57    60     1
SMALL
NO_CHARGES


@<TRIPOS>ATOM
      1 C1          -0.6776   2.5883   2.4343 C.3            1 <1>                0.0000
      2 C2          -0.6568   1.0584   2.4259 C.3            1 <1>                0.0000
      3 N3           0.0308   0.5847   1.2173 N.4            1 <1>                0.0000
      4 H4           0.9772   0.9344   1.2111 H              1 <1>                0.0000
      5 C5           0.0530  -0.8830   1.2124 C.3            1 <1>                0.0000
      6 C6           0.8385  -1.3808  -0.0028 C.3            1 <1>                0.0000
      7 C7           0.1649  -0.8747  -1.2816 C.3            1 <1>                0.0000
      8 C8           0.0803   0.6536  -1.2316 C.3            1 <1>                0.0000
      9 C9          -0.6782   1.0746   0.0291 C.3            1 <1>                0.0000
     10 C10          0.9769  -1.2955  -2.4793 C.2            1 <1>                0.0000
     11 O11          1.9946  -1.9373  -2.3269 O.2            1 <1>                0.0000
     12 N12          0.5720  -0.9587  -3.7200 N.am           1 <1>                0.0000
     13 C13          1.3613  -1.3678  -4.8844 C.3            1 <1>                0.0000
     14 C14          0.6972  -0.8690  -6.1418 C.ar           1 <1>                0.0000
     15 C15         -0.2415  -1.6540  -6.7852 C.ar           1 <1>                0.0000
     16 C16         -0.8511  -1.1976  -7.9384 C.ar           1 <1>                0.0000
     17 C17         -0.5218   0.0465  -8.4491 C.ar           1 <1>                0.0000
     18 F18         -1.1175   0.4939  -9.5762 F              1 <1>                0.0000
     19 C19          0.4182   0.8320  -7.8037 C.ar           1 <1>                0.0000
     20 C20          1.0230   0.3755  -6.6479 C.ar           1 <1>                0.0000
     21 C21          0.0720   0.5592   3.6468 C.ar           1 <1>                0.0000
     22 C22          1.3978   0.2581   3.5768 C.ar           1 <1>                0.0000
     23 C23          2.0884  -0.2042   4.6950 C.ar           1 <1>                0.0000
     24 C24          1.4576  -0.3686   5.8900 C.ar           1 <1>                0.0000
     25 C25          0.0895  -0.0681   6.0010 C.ar           1 <1>                0.0000
     26 C26         -0.5958  -0.2247   7.2180 C.ar           1 <1>                0.0000
     27 C27         -1.9211   0.0767   7.2880 C.ar           1 <1>                0.0000
     28 C28         -2.6120   0.5391   6.1693 C.ar           1 <1>                0.0000
     29 C29         -1.9816   0.7026   4.9744 C.ar           1 <1>                0.0000
     30 C30         -0.6118   0.4076   4.8648 C.ar           1 <1>                0.0000
     31 H31          0.3450   2.9656   2.4266 H              1 <1>                0.0000
     32 H32         -1.2048   2.9493   1.5513 H              1 <1>                0.0000
     33 H33         -1.1878   2.9398   3.3311 H              1 <1>                0.0000
     34 H34         -1.6794   0.6811   2.4337 H              1 <1>                0.0000
     35 H35          0.5298  -1.2417   2.1245 H              1 <1>                0.0000
     36 H36         -0.9681  -1.2612   1.1642 H              1 <1>                0.0000
     37 H37          1.8600  -1.0033   0.0445 H              1 <1>                0.0000
     38 H38          0.8524  -2.4707  -0.0056 H              1 <1>                0.0000
     39 H39         -0.8389  -1.2931  -1.3549 H              1 <1>                0.0000
     40 H40          1.0860   1.0733  -1.2099 H              1 <1>                0.0000
     41 H41         -0.4479   1.0178  -2.1128 H              1 <1>                0.0000
     42 H42         -1.6835   0.6541   0.0052 H              1 <1>                0.0000
     43 H43         -0.7410   2.1621   0.0686 H              1 <1>                0.0000
     44 H44         -0.2419  -0.4454  -3.8419 H              1 <1>                0.0000
     45 H45          2.3635  -0.9454  -4.8106 H              1 <1>                0.0000
     46 H46          1.4269  -2.4554  -4.9149 H              1 <1>                0.0000
     47 H47         -0.4982  -2.6243  -6.3866 H              1 <1>                0.0000
     48 H48         -1.5839  -1.8113  -8.4412 H              1 <1>                0.0000
     49 H49          0.6760   1.8024  -8.2013 H              1 <1>                0.0000
     50 H50          1.7560   0.9881  -6.1441 H              1 <1>                0.0000
     51 H51          1.9219   0.3791   2.6403 H              1 <1>                0.0000
     52 H52          3.1401  -0.4359   4.6124 H              1 <1>                0.0000
     53 H53          2.0056  -0.7285   6.7482 H              1 <1>                0.0000
     54 H54         -0.0736  -0.5826   8.0930 H              1 <1>                0.0000
     55 H55         -2.4453  -0.0445   8.2244 H              1 <1>                0.0000
     56 H56         -3.6637   0.7707   6.2520 H              1 <1>                0.0000
     57 H57         -2.5300   1.0613   4.1160 H              1 <1>                0.0000
@<TRIPOS>BOND
    1    1    2 1     
    2    1   31 1     
    3    1   32 1     
    4    1   33 1     
    5    2    3 1     
    6    2   21 1     
    7    2   34 1     
    8    3    4 1     
    9    3    9 1     
   10    3    5 1     
   11    5    6 1     
   12    5   35 1     
   13    5   36 1     
   14    6    7 1     
   15    6   37 1     
   16    6   38 1     
   17    7    8 1     
   18    7   10 1     
   19    7   39 1     
   20    8    9 1     
   21    8   40 1     
   22    8   41 1     
   23    9   42 1     
   24    9   43 1     
   25   10   11 2     
   26   10   12 am    
   27   12   13 1     
   28   12   44 1     
   29   13   14 1     
   30   13   45 1     
   31   13   46 1     
   32   14   20 ar    
   33   14   15 ar    
   34   15   16 ar    
   35   15   47 1     
   36   16   17 ar    
   37   16   48 1     
   38   17   18 1     
   39   17   19 ar    
   40   19   20 ar    
   41   19   49 1     
   42   20   50 1     
   43   21   30 ar    
   44   21   22 ar    
   45   22   23 ar    
   46   22   51 1     
   47   23   24 ar    
   48   23   52 1     
   49   24   25 ar    
   50   24   53 1     
   51   25   30 ar    
   52   25   26 ar    
   53   26   27 ar    
   54   26   54 1     
   55   27   28 ar    
   56   27   55 1     
   57   28   29 ar    
   58   28   56 1     
   59   29   30 ar    
   60   29   57 1     
@<TRIPOS>SUBSTRUCTURE
      1 ****           1
@<TRIPOS>SET
DONOR_HYDROGENS      STATIC     ATOMS    <user>   **** ""
2 4 44
ATOM$RED        STATIC     ATOMS    COLORGROUP SYSTEM
2 4 44
