#       Name:                P8P
#       Creating user name   gbret
#       Creation time:       Fri Sep  9 14:09:27 2016


#       File generated by GOLD software.
#

@<TRIPOS>MOLECULE
P8P
    67    66     1
SMALL
NO_CHARGES


@<TRIPOS>ATOM
      1 C1          -4.7361   7.7732   5.4010 C.3            1 <1>                0.0000
      2 C2          -4.7153   6.2433   5.3926 C.3            1 <1>                0.0000
      3 C3          -3.9992   5.7499   4.1338 C.3            1 <1>                0.0000
      4 C4          -3.9784   4.2201   4.1254 C.3            1 <1>                0.0000
      5 C5          -3.2623   3.7267   2.8666 C.3            1 <1>                0.0000
      6 C6          -3.2416   2.1968   2.8582 C.3            1 <1>                0.0000
      7 C7          -2.5254   1.7034   1.5994 C.3            1 <1>                0.0000
      8 C8          -2.5050   0.1966   1.5911 C.2            1 <1>                0.0000
      9 O9          -3.0113  -0.4195   2.4989 O.2            1 <1>                0.0000
     10 O10         -1.9243  -0.4612   0.5752 O.3            1 <1>                0.0000
     11 C11         -1.9420  -1.9119   0.6334 C.3            1 <1>                0.0000
     12 C12         -1.2390  -2.4804  -0.6008 C.3            1 <1>                0.0000
     13 C13         -1.8883  -1.9126  -1.8645 C.3            1 <1>                0.0000
     14 O14         -1.8734  -0.4848  -1.8073 O.3            1 <1>                0.0000
     15 P15         -2.4770   0.4458  -2.9742 P.3            1 <1>                0.0000
     16 O16         -1.6514   0.2529  -4.2657 O.co2          1 <1>                0.0000
     17 O17         -3.9471   0.0513  -3.2389 O.co2          1 <1>                0.0000
     18 O18         -2.4090   1.9887  -2.5192 O.3            1 <1>                0.0000
     19 P19         -3.1713   3.3274  -2.9873 P.3            1 <1>                0.0000
     20 O20         -4.5894   3.3801  -2.3235 O.co2          1 <1>                0.0000
     21 O21         -2.3418   4.5815  -2.5475 O.co2          1 <1>                0.0000
     22 O22         -3.3244   3.3230  -4.5465 O.co2          1 <1>                0.0000
     23 O23          0.1651  -2.1119  -0.5707 O.3            1 <1>                0.0000
     24 C24          1.0301  -2.9592  -1.1500 C.2            1 <1>                0.0000
     25 O25          0.6273  -3.9752  -1.6652 O.2            1 <1>                0.0000
     26 C26          2.5036  -2.6433  -1.1579 C.3            1 <1>                0.0000
     27 C27          3.2613  -3.7625  -1.8750 C.3            1 <1>                0.0000
     28 C28          4.7573  -3.4418  -1.8830 C.3            1 <1>                0.0000
     29 C29          5.5150  -4.5609  -2.6002 C.3            1 <1>                0.0000
     30 C30          7.0110  -4.2402  -2.6082 C.3            1 <1>                0.0000
     31 C31          7.7687  -5.3593  -3.3253 C.3            1 <1>                0.0000
     32 C32          9.2647  -5.0386  -3.3333 C.3            1 <1>                0.0000
     33 H33         -3.7135   8.1505   5.3933 H              1 <1>                0.0000
     34 H34         -5.2633   8.1342   4.5180 H              1 <1>                0.0000
     35 H35         -5.2463   8.1247   6.2978 H              1 <1>                0.0000
     36 H36         -4.1881   5.8823   6.2757 H              1 <1>                0.0000
     37 H37         -5.7379   5.8660   5.4004 H              1 <1>                0.0000
     38 H38         -4.5264   6.1110   3.2508 H              1 <1>                0.0000
     39 H39         -2.9766   6.1272   4.1261 H              1 <1>                0.0000
     40 H40         -3.4513   3.8590   5.0085 H              1 <1>                0.0000
     41 H41         -5.0010   3.8428   4.1331 H              1 <1>                0.0000
     42 H42         -3.7895   4.0877   1.9835 H              1 <1>                0.0000
     43 H43         -2.2397   4.1039   2.8589 H              1 <1>                0.0000
     44 H44         -2.7144   1.8357   3.7412 H              1 <1>                0.0000
     45 H45         -4.2641   1.8195   2.8659 H              1 <1>                0.0000
     46 H46         -3.0526   2.0645   0.7163 H              1 <1>                0.0000
     47 H47         -1.5028   2.0807   1.5916 H              1 <1>                0.0000
     48 H48         -1.4242  -2.2458   1.5326 H              1 <1>                0.0000
     49 H49         -2.9740  -2.2620   0.6573 H              1 <1>                0.0000
     50 H50         -1.3296  -3.5667  -0.6025 H              1 <1>                0.0000
     51 H51         -1.3324  -2.2470  -2.7403 H              1 <1>                0.0000
     52 H52         -2.9183  -2.2627  -1.9324 H              1 <1>                0.0000
     53 H53          2.6703  -1.7003  -1.6784 H              1 <1>                0.0000
     54 H54          2.8630  -2.5607  -0.1321 H              1 <1>                0.0000
     55 H55          3.0947  -4.7056  -1.3546 H              1 <1>                0.0000
     56 H56          2.9020  -3.8452  -2.9008 H              1 <1>                0.0000
     57 H57          4.9239  -2.4987  -2.4035 H              1 <1>                0.0000
     58 H58          5.1166  -3.3591  -0.8573 H              1 <1>                0.0000
     59 H59          5.3484  -5.5040  -2.0797 H              1 <1>                0.0000
     60 H60          5.1557  -4.6436  -3.6259 H              1 <1>                0.0000
     61 H61          7.1776  -3.2971  -3.1286 H              1 <1>                0.0000
     62 H62          7.3703  -4.1575  -1.5824 H              1 <1>                0.0000
     63 H63          7.6021  -6.3024  -2.8048 H              1 <1>                0.0000
     64 H64          7.4094  -5.4420  -4.3511 H              1 <1>                0.0000
     65 H65          9.4313  -4.0955  -3.8538 H              1 <1>                0.0000
     66 H66          9.6240  -4.9559  -2.3076 H              1 <1>                0.0000
     67 H67          9.8045  -5.8359  -3.8442 H              1 <1>                0.0000
@<TRIPOS>BOND
    1    1    2 1     
    2    1   33 1     
    3    1   34 1     
    4    1   35 1     
    5    2    3 1     
    6    2   36 1     
    7    2   37 1     
    8    3    4 1     
    9    3   38 1     
   10    3   39 1     
   11    4    5 1     
   12    4   40 1     
   13    4   41 1     
   14    5    6 1     
   15    5   42 1     
   16    5   43 1     
   17    6    7 1     
   18    6   44 1     
   19    6   45 1     
   20    7    8 1     
   21    7   46 1     
   22    7   47 1     
   23    8    9 2     
   24    8   10 1     
   25   10   11 1     
   26   11   12 1     
   27   11   48 1     
   28   11   49 1     
   29   12   13 1     
   30   12   23 1     
   31   12   50 1     
   32   13   14 1     
   33   13   51 1     
   34   13   52 1     
   35   14   15 1     
   36   15   16 ar    
   37   15   17 ar    
   38   15   18 1     
   39   18   19 1     
   40   19   20 ar    
   41   19   21 ar    
   42   19   22 ar    
   43   23   24 1     
   44   24   25 2     
   45   24   26 1     
   46   26   27 1     
   47   26   53 1     
   48   26   54 1     
   49   27   28 1     
   50   27   55 1     
   51   27   56 1     
   52   28   29 1     
   53   28   57 1     
   54   28   58 1     
   55   29   30 1     
   56   29   59 1     
   57   29   60 1     
   58   30   31 1     
   59   30   61 1     
   60   30   62 1     
   61   31   32 1     
   62   31   63 1     
   63   31   64 1     
   64   32   65 1     
   65   32   66 1     
   66   32   67 1     
@<TRIPOS>SUBSTRUCTURE
      1 ****           1
