#       Name:                P9P
#       Creating user name   gbret
#       Creation time:       Fri Sep  9 14:10:42 2016


#       File generated by GOLD software.
#

@<TRIPOS>MOLECULE
P9P
    14    14     1
SMALL
NO_CHARGES


@<TRIPOS>ATOM
      1 O1           0.0033  -3.2263  -0.0184 O.co2          1 <1>                0.0000
      2 C2          -0.0152  -1.8672  -0.0109 C.ar           1 <1>                0.0000
      3 C3          -1.2249  -1.1888   0.0101 C.ar           1 <1>                0.0000
      4 C4          -1.2411   0.1926   0.0181 C.ar           1 <1>                0.0000
      5 C5          -0.0529   0.8997   0.0053 C.ar           1 <1>                0.0000
      6 C6           1.1546   0.2268  -0.0157 C.ar           1 <1>                0.0000
      7 C7           1.1767  -1.1556  -0.0185 C.ar           1 <1>                0.0000
      8 Cl8          2.6930  -2.0004  -0.0448 Cl             1 <1>                0.0000
      9 N9          -0.0739   2.3796   0.0134 N.pl3          1 <1>                0.0000
     10 O10         -1.1371   2.9735   0.0315 O.2            1 <1>                0.0000
     11 O11          0.9721   3.0035   0.0021 O.2            1 <1>                0.0000
     12 H12         -2.1535  -1.7402   0.0198 H              1 <1>                0.0000
     13 H13         -2.1830   0.7208   0.0341 H              1 <1>                0.0000
     14 H14          2.0813   0.7814  -0.0257 H              1 <1>                0.0000
@<TRIPOS>BOND
    1    1    2 ar    
    2    2    7 ar    
    3    2    3 ar    
    4    3    4 ar    
    5    3   12 1     
    6    4    5 ar    
    7    4   13 1     
    8    5    6 ar    
    9    5    9 1     
   10    6    7 ar    
   11    6   14 1     
   12    7    8 1     
   13    9   10 2     
   14    9   11 2     
@<TRIPOS>SUBSTRUCTURE
      1 ****           1
