#       Name:                PA6
#       Creating user name   gbret
#       Creation time:       Fri Sep  9 14:11:04 2016


#       File generated by GOLD software.
#

@<TRIPOS>MOLECULE
PA6
    33    32     1
SMALL
NO_CHARGES


@<TRIPOS>ATOM
      1 C1          -1.7690   5.2332   2.9294 C.3            1 <1>                0.0000
      2 C2          -1.7482   3.7033   2.9210 C.3            1 <1>                0.0000
      3 C3          -1.0321   3.2099   1.6622 C.3            1 <1>                0.0000
      4 C4          -1.0113   1.6801   1.6538 C.3            1 <1>                0.0000
      5 C5          -0.3060   1.1941   0.4139 C.2            1 <1>                0.0000
      6 O6           0.1349   1.9897  -0.3814 O.2            1 <1>                0.0000
      7 O7          -0.1675  -0.1227   0.1931 O.3            1 <1>                0.0000
      8 C8           0.5227  -0.5184  -1.0216 C.3            1 <1>                0.0000
      9 C9           0.5828  -2.0452  -1.0997 C.3            1 <1>                0.0000
     10 C10          1.1979  -2.4636  -2.4366 C.3            1 <1>                0.0000
     11 O11          1.1477  -3.8864  -2.5595 O.3            1 <1>                0.0000
     12 P12          1.7094  -4.6759  -3.8454 P.3            1 <1>                0.0000
     13 O13          3.2612  -4.4823  -3.9402 O.co2          1 <1>                0.0000
     14 O14          1.3809  -6.2014  -3.7061 O.co2          1 <1>                0.0000
     15 O15          1.0327  -4.1121  -5.1410 O.co2          1 <1>                0.0000
     16 O16          1.3984  -2.5538  -0.0114 O.3            1 <1>                0.0000
     17 C17          1.0924  -3.7721   0.4616 C.2            1 <1>                0.0000
     18 O18          1.7359  -4.2479   1.3669 O.2            1 <1>                0.0000
     19 H19         -0.7464   5.6105   2.9217 H              1 <1>                0.0000
     20 H20         -2.2962   5.5942   2.0464 H              1 <1>                0.0000
     21 H21         -2.2792   5.5847   3.8262 H              1 <1>                0.0000
     22 H22         -1.2210   3.3423   3.8041 H              1 <1>                0.0000
     23 H23         -2.7708   3.3260   2.9288 H              1 <1>                0.0000
     24 H24         -1.5593   3.5710   0.7792 H              1 <1>                0.0000
     25 H25         -0.0095   3.5872   1.6545 H              1 <1>                0.0000
     26 H26         -0.4842   1.3190   2.5369 H              1 <1>                0.0000
     27 H27         -2.0339   1.3028   1.6615 H              1 <1>                0.0000
     28 H28         -0.0145  -0.1311  -1.8873 H              1 <1>                0.0000
     29 H29          1.5352  -0.1149  -1.0120 H              1 <1>                0.0000
     30 H30         -0.4249  -2.4530  -1.0198 H              1 <1>                0.0000
     31 H31          0.6371  -2.0084  -3.2529 H              1 <1>                0.0000
     32 H32          2.2352  -2.1317  -2.4791 H              1 <1>                0.0000
     33 H33          0.2710  -4.3271   0.0331 H              1 <1>                0.0000
@<TRIPOS>BOND
    1    1    2 1     
    2    1   19 1     
    3    1   20 1     
    4    1   21 1     
    5    2    3 1     
    6    2   22 1     
    7    2   23 1     
    8    3    4 1     
    9    3   24 1     
   10    3   25 1     
   11    4    5 1     
   12    4   26 1     
   13    4   27 1     
   14    5    6 2     
   15    5    7 1     
   16    7    8 1     
   17    8    9 1     
   18    8   28 1     
   19    8   29 1     
   20    9   10 1     
   21    9   16 1     
   22    9   30 1     
   23   10   11 1     
   24   10   31 1     
   25   10   32 1     
   26   11   12 1     
   27   12   13 ar    
   28   12   14 ar    
   29   12   15 ar    
   30   16   17 1     
   31   17   18 2     
   32   17   33 1     
@<TRIPOS>SUBSTRUCTURE
      1 ****           1
