#       Name:                PA8
#       Creating user name   gbret
#       Creation time:       Fri Sep  9 14:11:12 2016


#       File generated by GOLD software.
#

@<TRIPOS>MOLECULE
PA8
    63    62     1
SMALL
NO_CHARGES


@<TRIPOS>ATOM
      1 C1          -2.1590   8.1094  -6.7270 C.3            1 <1>                0.0000
      2 C2          -2.1382   6.5795  -6.7354 C.3            1 <1>                0.0000
      3 C3          -1.3982   6.0727  -5.4959 C.3            1 <1>                0.0000
      4 C4          -1.3775   4.5429  -5.5043 C.3            1 <1>                0.0000
      5 C5          -0.6375   4.0360  -4.2647 C.3            1 <1>                0.0000
      6 C6          -0.6167   2.5062  -4.2732 C.3            1 <1>                0.0000
      7 C7           0.1233   1.9994  -3.0336 C.3            1 <1>                0.0000
      8 C8           0.1437   0.4925  -3.0419 C.2            1 <1>                0.0000
      9 O9          -0.3799  -0.1138  -3.9464 O.2            1 <1>                0.0000
     10 O10          0.7435  -0.1761  -2.0445 O.3            1 <1>                0.0000
     11 C11          0.7246  -1.6261  -2.1179 C.3            1 <1>                0.0000
     12 C12          1.4510  -2.2078  -0.9035 C.3            1 <1>                0.0000
     13 C13          2.8611  -1.6194  -0.8226 C.3            1 <1>                0.0000
     14 O14          2.7818  -0.1926  -0.8096 O.3            1 <1>                0.0000
     15 P15          4.0796   0.7570  -0.7303 P.3            1 <1>                0.0000
     16 O16          4.9385   0.5769  -2.0281 O.co2          1 <1>                0.0000
     17 O17          3.6263   2.2516  -0.6072 O.co2          1 <1>                0.0000
     18 O18          4.9367   0.3664   0.5216 O.co2          1 <1>                0.0000
     19 O19          0.7176  -1.8747   0.3046 O.3            1 <1>                0.0000
     20 C20          0.8002  -2.7414   1.3262 C.2            1 <1>                0.0000
     21 O21          1.4635  -3.7452   1.2147 O.2            1 <1>                0.0000
     22 C22          0.0657  -2.4626   2.6122 C.3            1 <1>                0.0000
     23 C23          0.3256  -3.5979   3.6044 C.3            1 <1>                0.0000
     24 C24         -0.4200  -3.3148   4.9101 C.3            1 <1>                0.0000
     25 C25         -0.1602  -4.4501   5.9023 C.3            1 <1>                0.0000
     26 C26         -0.9058  -4.1670   7.2079 C.3            1 <1>                0.0000
     27 C27         -0.6459  -5.3023   8.2002 C.3            1 <1>                0.0000
     28 C28         -1.3916  -5.0192   9.5058 C.3            1 <1>                0.0000
     29 H29         -1.1364   8.4867  -6.7347 H              1 <1>                0.0000
     30 H30         -2.6862   8.4704  -7.6100 H              1 <1>                0.0000
     31 H31         -2.6692   8.4609  -5.8302 H              1 <1>                0.0000
     32 H32         -3.1608   6.2022  -6.7276 H              1 <1>                0.0000
     33 H33         -1.6280   6.2280  -7.6322 H              1 <1>                0.0000
     34 H34         -0.3756   6.4500  -5.5036 H              1 <1>                0.0000
     35 H35         -1.9084   6.4242  -4.5991 H              1 <1>                0.0000
     36 H36         -2.4001   4.1656  -5.4965 H              1 <1>                0.0000
     37 H37         -0.8673   4.1913  -6.4011 H              1 <1>                0.0000
     38 H38          0.3851   4.4133  -4.2725 H              1 <1>                0.0000
     39 H39         -1.1477   4.3875  -3.3679 H              1 <1>                0.0000
     40 H40         -1.6393   2.1289  -4.2654 H              1 <1>                0.0000
     41 H41         -0.1066   2.1547  -5.1699 H              1 <1>                0.0000
     42 H42          1.1458   2.3766  -3.0414 H              1 <1>                0.0000
     43 H43         -0.3869   2.3509  -2.1368 H              1 <1>                0.0000
     44 H44         -0.3077  -1.9760  -2.1258 H              1 <1>                0.0000
     45 H45          1.2251  -1.9502  -3.0303 H              1 <1>                0.0000
     46 H46          1.5146  -3.2914  -1.0028 H              1 <1>                0.0000
     47 H47          3.3470  -1.9646   0.0900 H              1 <1>                0.0000
     48 H48          3.4401  -1.9433  -1.6874 H              1 <1>                0.0000
     49 H49          0.4185  -1.5222   3.0356 H              1 <1>                0.0000
     50 H50         -1.0035  -2.3925   2.4122 H              1 <1>                0.0000
     51 H51         -0.0272  -4.5383   3.1811 H              1 <1>                0.0000
     52 H52          1.3948  -3.6679   3.8045 H              1 <1>                0.0000
     53 H53         -0.0672  -2.3744   5.3334 H              1 <1>                0.0000
     54 H54         -1.4892  -3.2447   4.7100 H              1 <1>                0.0000
     55 H55         -0.5130  -5.3905   5.4789 H              1 <1>                0.0000
     56 H56          0.9090  -4.5201   6.1023 H              1 <1>                0.0000
     57 H57         -0.5530  -3.2266   7.6313 H              1 <1>                0.0000
     58 H58         -1.9750  -4.0969   7.0079 H              1 <1>                0.0000
     59 H59         -0.9987  -6.2427   7.7768 H              1 <1>                0.0000
     60 H60          0.4233  -5.3723   8.4002 H              1 <1>                0.0000
     61 H61         -1.2065  -5.8280  10.2127 H              1 <1>                0.0000
     62 H62         -1.0388  -4.0788   9.9292 H              1 <1>                0.0000
     63 H63         -2.4608  -4.9491   9.3058 H              1 <1>                0.0000
@<TRIPOS>BOND
    1    1    2 1     
    2    1   29 1     
    3    1   30 1     
    4    1   31 1     
    5    2    3 1     
    6    2   32 1     
    7    2   33 1     
    8    3    4 1     
    9    3   34 1     
   10    3   35 1     
   11    4    5 1     
   12    4   36 1     
   13    4   37 1     
   14    5    6 1     
   15    5   38 1     
   16    5   39 1     
   17    6    7 1     
   18    6   40 1     
   19    6   41 1     
   20    7    8 1     
   21    7   42 1     
   22    7   43 1     
   23    8    9 2     
   24    8   10 1     
   25   10   11 1     
   26   11   12 1     
   27   11   44 1     
   28   11   45 1     
   29   12   13 1     
   30   12   19 1     
   31   12   46 1     
   32   13   14 1     
   33   13   47 1     
   34   13   48 1     
   35   14   15 1     
   36   15   16 ar    
   37   15   17 ar    
   38   15   18 ar    
   39   19   20 1     
   40   20   21 2     
   41   20   22 1     
   42   22   23 1     
   43   22   49 1     
   44   22   50 1     
   45   23   24 1     
   46   23   51 1     
   47   23   52 1     
   48   24   25 1     
   49   24   53 1     
   50   24   54 1     
   51   25   26 1     
   52   25   55 1     
   53   25   56 1     
   54   26   27 1     
   55   26   57 1     
   56   26   58 1     
   57   27   28 1     
   58   27   59 1     
   59   27   60 1     
   60   28   61 1     
   61   28   62 1     
   62   28   63 1     
@<TRIPOS>SUBSTRUCTURE
      1 ****           1
