#       Name:                PCM
#       Creating user name   gbret
#       Creation time:       Fri Sep  9 14:16:49 2016


#       File generated by GOLD software.
#

@<TRIPOS>MOLECULE
PCM
    85    87     1
SMALL
NO_CHARGES


@<TRIPOS>ATOM
      1 C1           2.7827   2.3433   4.7778 C.3            1 <1>                0.0000
      2 C2           2.3490   0.9300   4.3836 C.3            1 <1>                0.0000
      3 C3           0.8285   0.8105   4.5057 C.3            1 <1>                0.0000
      4 C4           2.7680   0.6524   2.9386 C.3            1 <1>                0.0000
      5 C5           2.5018  -0.8166   2.6036 C.3            1 <1>                0.0000
      6 N6           3.1615  -1.6707   3.5944 N.am           1 <1>                0.0000
      7 C7           4.4417  -2.0503   3.4110 C.2            1 <1>                0.0000
      8 O8           5.0771  -1.6115   2.4729 O.2            1 <1>                0.0000
      9 O9           5.0163  -2.9159   4.2674 O.3            1 <1>                0.0000
     10 C10          6.3978  -3.2803   4.0084 C.3            1 <1>                0.0000
     11 C11          6.8676  -4.2498   5.0622 C.ar           1 <1>                0.0000
     12 C12          7.4464  -3.7789   6.2258 C.ar           1 <1>                0.0000
     13 C13          7.8774  -4.6682   7.1924 C.ar           1 <1>                0.0000
     14 C14          7.7290  -6.0284   6.9956 C.ar           1 <1>                0.0000
     15 C15          7.1493  -6.4993   5.8323 C.ar           1 <1>                0.0000
     16 C16          6.7145  -5.6098   4.8676 C.ar           1 <1>                0.0000
     17 C17          1.0174  -1.0758   2.6258 C.2            1 <1>                0.0000
     18 O18          0.5557  -1.8913   3.3957 O.2            1 <1>                0.0000
     19 N19          0.2030  -0.4015   1.7901 N.am           1 <1>                0.0000
     20 C20         -1.2400  -0.6535   1.8117 C.3            1 <1>                0.0000
     21 C21         -1.9992   0.5563   1.2396 C.3            1 <1>                0.0000
     22 N22         -2.3506   0.1912  -0.1443 N.am           1 <1>                0.0000
     23 C23         -2.5191  -1.2716  -0.1507 C.3            1 <1>                0.0000
     24 C24         -1.5814  -1.8192   0.9046 C.2            1 <1>                0.0000
     25 O25         -1.1850  -2.9556   1.0034 O.2            1 <1>                0.0000
     26 C26         -2.4903   1.0273  -1.1921 C.2            1 <1>                0.0000
     27 O27         -2.3217   2.2191  -1.0436 O.2            1 <1>                0.0000
     28 C28         -2.8561   0.4813  -2.5482 C.3            1 <1>                0.0000
     29 C29         -4.2541  -0.1376  -2.4887 C.3            1 <1>                0.0000
     30 C30         -5.2864   0.9592  -2.2199 C.3            1 <1>                0.0000
     31 C31         -6.6951   0.3830  -2.3757 C.3            1 <1>                0.0000
     32 C32         -5.1072   1.4903  -0.7962 C.3            1 <1>                0.0000
     33 N33         -2.8443   1.5674  -3.5314 N.am           1 <1>                0.0000
     34 C34         -2.6844   1.2896  -4.8405 C.2            1 <1>                0.0000
     35 O35         -2.4587   0.1500  -5.1966 O.2            1 <1>                0.0000
     36 O36         -2.7746   2.2749  -5.7536 O.3            1 <1>                0.0000
     37 C37         -2.5915   1.9028  -7.1451 C.3            1 <1>                0.0000
     38 C38         -2.7263   3.1266  -8.0142 C.ar           1 <1>                0.0000
     39 C39         -3.9649   3.4898  -8.5091 C.ar           1 <1>                0.0000
     40 C40         -4.0886   4.6123  -9.3064 C.ar           1 <1>                0.0000
     41 C41         -2.9738   5.3718  -9.6083 C.ar           1 <1>                0.0000
     42 C42         -1.7354   5.0092  -9.1126 C.ar           1 <1>                0.0000
     43 C43         -1.6124   3.8891  -8.3119 C.ar           1 <1>                0.0000
     44 H44          2.4842   2.5411   5.8073 H              1 <1>                0.0000
     45 H45          3.8659   2.4285   4.6909 H              1 <1>                0.0000
     46 H46          2.3070   3.0672   4.1161 H              1 <1>                0.0000
     47 H47          2.8246   0.2062   5.0453 H              1 <1>                0.0000
     48 H48          0.3549   1.3389   3.6783 H              1 <1>                0.0000
     49 H49          0.5432  -0.2411   4.4761 H              1 <1>                0.0000
     50 H50          0.5043   1.2484   5.4497 H              1 <1>                0.0000
     51 H51          2.1936   1.2885   2.2651 H              1 <1>                0.0000
     52 H52          3.8306   0.8650   2.8211 H              1 <1>                0.0000
     53 H53          2.8949  -1.0401   1.6119 H              1 <1>                0.0000
     54 H54          2.6770  -1.9629   4.3822 H              1 <1>                0.0000
     55 H55          6.4724  -3.7470   3.0262 H              1 <1>                0.0000
     56 H56          7.0204  -2.3860   4.0340 H              1 <1>                0.0000
     57 H57          7.5624  -2.7162   6.3796 H              1 <1>                0.0000
     58 H58          8.3303  -4.3003   8.1012 H              1 <1>                0.0000
     59 H59          8.0663  -6.7232   7.7504 H              1 <1>                0.0000
     60 H60          7.0337  -7.5620   5.6784 H              1 <1>                0.0000
     61 H61          6.2616  -5.9777   3.9588 H              1 <1>                0.0000
     62 H62          0.5723   0.2507   1.1744 H              1 <1>                0.0000
     63 H63         -1.5704  -0.8595   2.8298 H              1 <1>                0.0000
     64 H64         -2.9026   0.7425   1.8204 H              1 <1>                0.0000
     65 H65         -1.3594   1.4387   1.2448 H              1 <1>                0.0000
     66 H66         -3.5492  -1.5300   0.0948 H              1 <1>                0.0000
     67 H67         -2.2559  -1.6736  -1.1290 H              1 <1>                0.0000
     68 H68         -2.1335  -0.2808  -2.8400 H              1 <1>                0.0000
     69 H69         -4.4777  -0.6219  -3.4393 H              1 <1>                0.0000
     70 H70         -4.2909  -0.8755  -1.6874 H              1 <1>                0.0000
     71 H71         -5.1458   1.7728  -2.9315 H              1 <1>                0.0000
     72 H72         -6.8357  -0.4306  -1.6641 H              1 <1>                0.0000
     73 H73         -7.4305   1.1644  -2.1842 H              1 <1>                0.0000
     74 H74         -6.8227   0.0047  -3.3900 H              1 <1>                0.0000
     75 H75         -4.2311   2.1376  -0.7574 H              1 <1>                0.0000
     76 H76         -5.9914   2.0579  -0.5062 H              1 <1>                0.0000
     77 H77         -4.9715   0.6537  -0.1108 H              1 <1>                0.0000
     78 H78         -2.9516   2.4864  -3.2401 H              1 <1>                0.0000
     79 H79         -1.5999   1.4702  -7.2780 H              1 <1>                0.0000
     80 H80         -3.3481   1.1710  -7.4281 H              1 <1>                0.0000
     81 H81         -4.8359   2.8963  -8.2732 H              1 <1>                0.0000
     82 H82         -5.0561   4.8956  -9.6936 H              1 <1>                0.0000
     83 H83         -3.0703   6.2484 -10.2317 H              1 <1>                0.0000
     84 H84         -0.8643   5.6024  -9.3488 H              1 <1>                0.0000
     85 H85         -0.6448   3.6057  -7.9247 H              1 <1>                0.0000
@<TRIPOS>BOND
    1    1    2 1     
    2    1   44 1     
    3    1   45 1     
    4    1   46 1     
    5    2    3 1     
    6    2    4 1     
    7    2   47 1     
    8    3   48 1     
    9    3   49 1     
   10    3   50 1     
   11    4    5 1     
   12    4   51 1     
   13    4   52 1     
   14    5    6 1     
   15    5   17 1     
   16    5   53 1     
   17    6    7 am    
   18    6   54 1     
   19    7    8 2     
   20    7    9 1     
   21    9   10 1     
   22   10   11 1     
   23   10   55 1     
   24   10   56 1     
   25   11   16 ar    
   26   11   12 ar    
   27   12   13 ar    
   28   12   57 1     
   29   13   14 ar    
   30   13   58 1     
   31   14   15 ar    
   32   14   59 1     
   33   15   16 ar    
   34   15   60 1     
   35   16   61 1     
   36   17   18 2     
   37   17   19 am    
   38   19   20 1     
   39   19   62 1     
   40   20   24 1     
   41   20   21 1     
   42   20   63 1     
   43   21   22 1     
   44   21   64 1     
   45   21   65 1     
   46   22   23 1     
   47   22   26 am    
   48   23   24 1     
   49   23   66 1     
   50   23   67 1     
   51   24   25 2     
   52   26   27 2     
   53   26   28 1     
   54   28   29 1     
   55   28   33 1     
   56   28   68 1     
   57   29   30 1     
   58   29   69 1     
   59   29   70 1     
   60   30   31 1     
   61   30   32 1     
   62   30   71 1     
   63   31   72 1     
   64   31   73 1     
   65   31   74 1     
   66   32   75 1     
   67   32   76 1     
   68   32   77 1     
   69   33   34 am    
   70   33   78 1     
   71   34   35 2     
   72   34   36 1     
   73   36   37 1     
   74   37   38 1     
   75   37   79 1     
   76   37   80 1     
   77   38   43 ar    
   78   38   39 ar    
   79   39   40 ar    
   80   39   81 1     
   81   40   41 ar    
   82   40   82 1     
   83   41   42 ar    
   84   41   83 1     
   85   42   43 ar    
   86   42   84 1     
   87   43   85 1     
@<TRIPOS>SUBSTRUCTURE
      1 ****           1
@<TRIPOS>SET
DONOR_HYDROGENS      STATIC     ATOMS    <user>   **** ""
3 54 62 78
ATOM$RED        STATIC     ATOMS    COLORGROUP SYSTEM
3 54 62 78
