#       Name:                PDT
#       Creating user name   gbret
#       Creation time:       Fri Sep  9 14:19:44 2016


#       File generated by GOLD software.
#

@<TRIPOS>MOLECULE
PDT
    13    12     1
SMALL
NO_CHARGES


@<TRIPOS>ATOM
      1 S1           0.9230   2.6784   0.0056 S.3            1 <1>                0.0000
      2 C2           0.9476   0.8646  -0.0044 C.3            1 <1>                0.0000
      3 C3          -0.4878   0.3351   0.0065 C.3            1 <1>                0.0000
      4 C4          -0.4671  -1.1948  -0.0019 C.3            1 <1>                0.0000
      5 S5          -2.1689  -1.8227   0.0109 S.3            1 <1>                0.0000
      6 H6           2.2292   2.9988  -0.0052 H              1 <1>                0.0000
      7 H7           1.4578   0.5131  -0.9012 H              1 <1>                0.0000
      8 H8           1.4748   0.5036   0.8787 H              1 <1>                0.0000
      9 H9          -0.9980   0.6866   0.9033 H              1 <1>                0.0000
     10 H10         -1.0150   0.6961  -0.8766 H              1 <1>                0.0000
     11 H11          0.0431  -1.5463  -0.8987 H              1 <1>                0.0000
     12 H12          0.0601  -1.5559   0.8811 H              1 <1>                0.0000
     13 H13         -1.9992  -3.1569   0.0022 H              1 <1>                0.0000
@<TRIPOS>BOND
    1    1    2 1     
    2    1    6 1     
    3    2    3 1     
    4    2    7 1     
    5    2    8 1     
    6    3    4 1     
    7    3    9 1     
    8    3   10 1     
    9    4    5 1     
   10    4   11 1     
   11    4   12 1     
   12    5   13 1     
@<TRIPOS>SUBSTRUCTURE
      1 ****           1
