#       Name:                PED
#       Creating user name   gbret
#       Creation time:       Fri Sep  9 14:21:06 2016


#       File generated by GOLD software.
#

@<TRIPOS>MOLECULE
PED
    23    22     1
SMALL
NO_CHARGES


@<TRIPOS>ATOM
      1 C1          -0.8683   3.0242   1.6146 C.3            1 <1>                0.0000
      2 C2          -0.8475   1.4943   1.6062 C.3            1 <1>                0.0000
      3 C3          -0.1314   1.0009   0.3474 C.3            1 <1>                0.0000
      4 O4           1.2407   1.3974   0.3937 O.3            1 <1>                0.0000
      5 C5          -0.2193  -0.5249   0.2756 C.3            1 <1>                0.0000
      6 O6          -1.5914  -0.9213   0.2293 O.3            1 <1>                0.0000
      7 C7           0.4969  -1.0183  -0.9832 C.3            1 <1>                0.0000
      8 O8           0.5162  -2.4471  -0.9911 O.3            1 <1>                0.0000
      9 P9           1.1920  -3.3084  -2.1716 P.3            1 <1>                0.0000
     10 O10          2.7368  -3.0483  -2.1893 O.co2          1 <1>                0.0000
     11 O11          0.9218  -4.8321  -1.9268 O.co2          1 <1>                0.0000
     12 O12          0.5750  -2.8831  -3.5473 O.co2          1 <1>                0.0000
     13 H13          0.1543   3.4015   1.6069 H              1 <1>                0.0000
     14 H14         -1.3955   3.3852   0.7316 H              1 <1>                0.0000
     15 H15         -1.3785   3.3757   2.5114 H              1 <1>                0.0000
     16 H16         -0.3203   1.1333   2.4893 H              1 <1>                0.0000
     17 H17         -1.8701   1.1170   1.6140 H              1 <1>                0.0000
     18 H18         -0.6052   1.4340  -0.5335 H              1 <1>                0.0000
     19 H19          1.7258   1.0475   1.1536 H              1 <1>                0.0000
     20 H20          0.2545  -0.9580   1.1565 H              1 <1>                0.0000
     21 H21         -2.0765  -0.5715  -0.5305 H              1 <1>                0.0000
     22 H22         -0.0303  -0.6572  -1.8663 H              1 <1>                0.0000
     23 H23          1.5195  -0.6410  -0.9909 H              1 <1>                0.0000
@<TRIPOS>BOND
    1    1    2 1     
    2    1   13 1     
    3    1   14 1     
    4    1   15 1     
    5    2    3 1     
    6    2   16 1     
    7    2   17 1     
    8    3    4 1     
    9    3    5 1     
   10    3   18 1     
   11    4   19 1     
   12    5    6 1     
   13    5    7 1     
   14    5   20 1     
   15    6   21 1     
   16    7    8 1     
   17    7   22 1     
   18    7   23 1     
   19    8    9 1     
   20    9   10 ar    
   21    9   11 ar    
   22    9   12 ar    
@<TRIPOS>SUBSTRUCTURE
      1 ****           1
@<TRIPOS>SET
DONOR_HYDROGENS      STATIC     ATOMS    <user>   **** ""
2 19 21
ATOM$RED        STATIC     ATOMS    COLORGROUP SYSTEM
2 19 21
