#       Name:                PFG
#       Creating user name   gbret
#       Creation time:       Fri Sep  9 14:23:34 2016


#       File generated by GOLD software.
#

@<TRIPOS>MOLECULE
PFG
   101   103     1
SMALL
NO_CHARGES


@<TRIPOS>ATOM
      1 N1           4.1584   5.5384   7.7827 N.pl3          1 <1>                0.0000
      2 C2           4.1770   4.1717   7.7752 C.2            1 <1>                0.0000
      3 N3           3.0290   3.5281   7.7773 N.2            1 <1>                0.0000
      4 C4           2.9717   2.1885   7.7699 C.2            1 <1>                0.0000
      5 O5           1.8985   1.6093   7.7715 O.2            1 <1>                0.0000
      6 C6           4.2383   1.4326   7.7591 C.ar           1 <1>                0.0000
      7 C7           4.2639   0.0402   7.7504 C.ar           1 <1>                0.0000
      8 C8           5.4759  -0.6161   7.7400 C.ar           1 <1>                0.0000
      9 C9           5.5109  -2.1227   7.7306 C.3            1 <1>                0.0000
     10 N10          5.5150  -2.6024   6.3464 N.pl3          1 <1>                0.0000
     11 C11          6.7855  -2.8128   5.6478 C.3            1 <1>                0.0000
     12 C12          7.2438  -4.1941   5.8683 C.1            1 <1>                0.0000
     13 C13          7.6094  -5.2958   6.0441 C.1            1 <1>                0.0000
     14 C14          4.3132  -2.8582   5.6956 C.ar           1 <1>                0.0000
     15 C15          3.1066  -2.6524   6.3590 C.ar           1 <1>                0.0000
     16 C16          1.9155  -2.9045   5.7177 C.ar           1 <1>                0.0000
     17 C17          1.9179  -3.3678   4.3987 C.ar           1 <1>                0.0000
     18 C18          3.1311  -3.5734   3.7354 C.ar           1 <1>                0.0000
     19 C19          4.3188  -3.3140   4.3802 C.ar           1 <1>                0.0000
     20 C20          0.6427  -3.6395   3.7084 C.2            1 <1>                0.0000
     21 O21         -0.4118  -3.4606   4.2868 O.2            1 <1>                0.0000
     22 N22          0.6467  -4.0861   2.4368 N.am           1 <1>                0.0000
     23 C23         -0.6196  -4.3560   1.7514 C.3            1 <1>                0.0000
     24 C24         -0.4169  -4.2361   0.2396 C.3            1 <1>                0.0000
     25 C25         -0.0651  -2.7898  -0.1146 C.3            1 <1>                0.0000
     26 C26          0.1347  -2.6717  -1.6037 C.2            1 <1>                0.0000
     27 O27          0.0081  -3.6481  -2.3118 O.2            1 <1>                0.0000
     28 N28          0.4540  -1.4810  -2.1484 N.am           1 <1>                0.0000
     29 C29          0.6481  -1.3662  -3.5959 C.3            1 <1>                0.0000
     30 C30          0.3811   0.0754  -4.0336 C.3            1 <1>                0.0000
     31 C31         -1.0910   0.4166  -3.7943 C.3            1 <1>                0.0000
     32 C32         -1.3540   1.8365  -4.2253 C.2            1 <1>                0.0000
     33 O33         -0.4527   2.5093  -4.6792 O.2            1 <1>                0.0000
     34 N34         -2.5908   2.3588  -4.1065 N.am           1 <1>                0.0000
     35 C35         -2.8465   3.7391  -4.5255 C.3            1 <1>                0.0000
     36 C36         -4.3255   3.8978  -4.8833 C.3            1 <1>                0.0000
     37 C37         -4.6496   3.0370  -6.1060 C.3            1 <1>                0.0000
     38 C38         -6.1065   3.1933  -6.4585 C.2            1 <1>                0.0000
     39 O39         -6.8157   3.9215  -5.7969 O.2            1 <1>                0.0000
     40 N40         -6.6213   2.5239  -7.5089 N.am           1 <1>                0.0000
     41 C41         -8.0375   2.6759  -7.8515 C.3            1 <1>                0.0000
     42 C42         -8.2387   2.3682  -9.3367 C.3            1 <1>                0.0000
     43 C43         -7.5042   3.4137 -10.1782 C.3            1 <1>                0.0000
     44 C44         -7.7025   3.1107 -11.6411 C.2            1 <1>                0.0000
     45 O45         -8.3694   2.1476 -11.9792 O.co2          1 <1>                0.0000
     46 O46         -7.1959   3.8285 -12.4865 O.co2          1 <1>                0.0000
     47 C47         -8.8596   1.7210  -7.0248 C.2            1 <1>                0.0000
     48 O48         -8.3131   0.9821  -6.2236 O.co2          1 <1>                0.0000
     49 O49        -10.0711   1.6875  -7.1571 O.co2          1 <1>                0.0000
     50 C50         -2.4984   4.6785  -3.3997 C.2            1 <1>                0.0000
     51 O51         -2.0760   4.2360  -2.3450 O.co2          1 <1>                0.0000
     52 O52         -2.6393   5.8810  -3.5435 O.co2          1 <1>                0.0000
     53 C53          2.0652  -1.7425  -3.9441 C.2            1 <1>                0.0000
     54 O54          2.3147  -2.2412  -5.0284 O.co2          1 <1>                0.0000
     55 O55          2.9622  -1.5484  -3.1415 O.co2          1 <1>                0.0000
     56 C56         -1.0854  -5.7494   2.0867 C.2            1 <1>                0.0000
     57 O57         -2.2774  -6.0041   2.1123 O.co2          1 <1>                0.0000
     58 O58         -0.2702  -6.6220   2.3325 O.co2          1 <1>                0.0000
     59 C59          6.6637   0.1005   7.7377 C.ar           1 <1>                0.0000
     60 C60          6.6529   1.4799   7.7467 C.ar           1 <1>                0.0000
     61 C61          5.4420   2.1579   7.7572 C.ar           1 <1>                0.0000
     62 N62          5.3795   3.5398   7.7603 N.pl3          1 <1>                0.0000
     63 H63          6.1982   4.0600   7.7549 H              1 <1>                0.0000
     64 H64          4.9918   6.0348   7.7774 H              1 <1>                0.0000
     65 H65          3.3119   6.0120   7.7894 H              1 <1>                0.0000
     66 H66          3.3411  -0.5210   7.7522 H              1 <1>                0.0000
     67 H67          6.4118  -2.4684   8.2376 H              1 <1>                0.0000
     68 H68          4.6323  -2.5098   8.2467 H              1 <1>                0.0000
     69 H69          6.6457  -2.6423   4.5804 H              1 <1>                0.0000
     70 H70          7.5311  -2.1168   6.0323 H              1 <1>                0.0000
     71 H71          7.9363  -6.2811   6.2014 H              1 <1>                0.0000
     72 H72          3.1054  -2.2948   7.3781 H              1 <1>                0.0000
     73 H73          0.9798  -2.7450   6.2329 H              1 <1>                0.0000
     74 H74          3.1362  -3.9316   2.7165 H              1 <1>                0.0000
     75 H75          5.2564  -3.4723   3.8682 H              1 <1>                0.0000
     76 H76          1.4879  -4.2288   1.9755 H              1 <1>                0.0000
     77 H77         -1.3694  -3.6344   2.0757 H              1 <1>                0.0000
     78 H78          0.3946  -4.8940  -0.0715 H              1 <1>                0.0000
     79 H79         -1.3345  -4.5230  -0.2740 H              1 <1>                0.0000
     80 H80         -0.8765  -2.1319   0.1964 H              1 <1>                0.0000
     81 H81          0.8526  -2.5029   0.3989 H              1 <1>                0.0000
     82 H82          0.5552  -0.7001  -1.5820 H              1 <1>                0.0000
     83 H83         -0.0422  -2.0355  -4.1093 H              1 <1>                0.0000
     84 H84          1.0097   0.7529  -3.4556 H              1 <1>                0.0000
     85 H85          0.6111   0.1818  -5.0937 H              1 <1>                0.0000
     86 H86         -1.7196  -0.2608  -4.3722 H              1 <1>                0.0000
     87 H87         -1.3210   0.3103  -2.7342 H              1 <1>                0.0000
     88 H88         -3.3116   1.8207  -3.7435 H              1 <1>                0.0000
     89 H89         -2.2347   3.9736  -5.3966 H              1 <1>                0.0000
     90 H90         -4.9394   3.5785  -4.0411 H              1 <1>                0.0000
     91 H91         -4.5345   4.9434  -5.1094 H              1 <1>                0.0000
     92 H92         -4.0358   3.3563  -6.9482 H              1 <1>                0.0000
     93 H93         -4.4407   1.9914  -5.8799 H              1 <1>                0.0000
     94 H94         -6.0540   1.9415  -8.0380 H              1 <1>                0.0000
     95 H95         -8.3532   3.6988  -7.6464 H              1 <1>                0.0000
     96 H96         -7.8415   1.3779  -9.5597 H              1 <1>                0.0000
     97 H97         -9.3027   2.3943  -9.5722 H              1 <1>                0.0000
     98 H98         -7.9015   4.4040  -9.9553 H              1 <1>                0.0000
     99 H99         -6.4403   3.3876  -9.9427 H              1 <1>                0.0000
    100 H100         7.6062  -0.4267   7.7292 H              1 <1>                0.0000
    101 H101         7.5825   2.0297   7.7455 H              1 <1>                0.0000
@<TRIPOS>BOND
    1    1    2 1     
    2    1   64 1     
    3    1   65 1     
    4    2   62 1     
    5    2    3 2     
    6    3    4 1     
    7    4    5 2     
    8    4    6 1     
    9    6   61 ar    
   10    6    7 ar    
   11    7    8 ar    
   12    7   66 1     
   13    8    9 1     
   14    8   59 ar    
   15    9   10 1     
   16    9   67 1     
   17    9   68 1     
   18   10   11 1     
   19   10   14 1     
   20   11   12 1     
   21   11   69 1     
   22   11   70 1     
   23   12   13 3     
   24   13   71 1     
   25   14   19 ar    
   26   14   15 ar    
   27   15   16 ar    
   28   15   72 1     
   29   16   17 ar    
   30   16   73 1     
   31   17   18 ar    
   32   17   20 1     
   33   18   19 ar    
   34   18   74 1     
   35   19   75 1     
   36   20   21 2     
   37   20   22 am    
   38   22   23 1     
   39   22   76 1     
   40   23   24 1     
   41   23   56 1     
   42   23   77 1     
   43   24   25 1     
   44   24   78 1     
   45   24   79 1     
   46   25   26 1     
   47   25   80 1     
   48   25   81 1     
   49   26   27 2     
   50   26   28 am    
   51   28   29 1     
   52   28   82 1     
   53   29   30 1     
   54   29   53 1     
   55   29   83 1     
   56   30   31 1     
   57   30   84 1     
   58   30   85 1     
   59   31   32 1     
   60   31   86 1     
   61   31   87 1     
   62   32   33 2     
   63   32   34 am    
   64   34   35 1     
   65   34   88 1     
   66   35   36 1     
   67   35   50 1     
   68   35   89 1     
   69   36   37 1     
   70   36   90 1     
   71   36   91 1     
   72   37   38 1     
   73   37   92 1     
   74   37   93 1     
   75   38   39 2     
   76   38   40 am    
   77   40   41 1     
   78   40   94 1     
   79   41   42 1     
   80   41   47 1     
   81   41   95 1     
   82   42   43 1     
   83   42   96 1     
   84   42   97 1     
   85   43   44 1     
   86   43   98 1     
   87   43   99 1     
   88   44   45 ar    
   89   44   46 ar    
   90   47   48 ar    
   91   47   49 ar    
   92   50   51 ar    
   93   50   52 ar    
   94   53   54 ar    
   95   53   55 ar    
   96   56   57 ar    
   97   56   58 ar    
   98   59   60 ar    
   99   59  100 1     
  100   60   61 ar    
  101   60  101 1     
  102   61   62 1     
  103   62   63 1     
@<TRIPOS>SUBSTRUCTURE
      1 ****           1
@<TRIPOS>SET
DONOR_HYDROGENS      STATIC     ATOMS    <user>   **** ""
7 64 65 76 82 88 94 63
ATOM$RED        STATIC     ATOMS    COLORGROUP SYSTEM
7 64 65 76 82 88 94 63
