#       Name:                PHQ
#       Creating user name   gbret
#       Creation time:       Fri Sep  9 14:29:10 2016


#       File generated by GOLD software.
#

@<TRIPOS>MOLECULE
PHQ
    18    18     1
SMALL
NO_CHARGES


@<TRIPOS>ATOM
      1 Cl1          2.6068  -4.0893  -0.0343 Cl             1 <1>                0.0000
      2 C2           2.5832  -2.3535  -0.0247 C.2            1 <1>                0.0000
      3 O3           3.6249  -1.7330  -0.0314 O.2            1 <1>                0.0000
      4 O4           1.4111  -1.6978  -0.0156 O.3            1 <1>                0.0000
      5 C5           1.4674  -0.2469  -0.0080 C.3            1 <1>                0.0000
      6 C6           0.0672   0.3101   0.0017 C.ar           1 <1>                0.0000
      7 C7          -0.5828   0.5668  -1.1910 C.ar           1 <1>                0.0000
      8 C8          -1.8673   1.0777  -1.1822 C.ar           1 <1>                0.0000
      9 C9          -2.5019   1.3316   0.0194 C.ar           1 <1>                0.0000
     10 C10         -1.8522   1.0740   1.2121 C.ar           1 <1>                0.0000
     11 C11         -0.5694   0.5591   1.2032 C.ar           1 <1>                0.0000
     12 H12          1.9992   0.0914   0.8813 H              1 <1>                0.0000
     13 H13          1.9907   0.1011  -0.8986 H              1 <1>                0.0000
     14 H14         -0.0870   0.3685  -2.1298 H              1 <1>                0.0000
     15 H15         -2.3748   1.2789  -2.1140 H              1 <1>                0.0000
     16 H16         -3.5051   1.7314   0.0263 H              1 <1>                0.0000
     17 H17         -2.3479   1.2727   2.1508 H              1 <1>                0.0000
     18 H18         -0.0618   0.3579   2.1351 H              1 <1>                0.0000
@<TRIPOS>BOND
    1    1    2 1     
    2    2    3 2     
    3    2    4 1     
    4    4    5 1     
    5    5    6 1     
    6    5   12 1     
    7    5   13 1     
    8    6   11 ar    
    9    6    7 ar    
   10    7    8 ar    
   11    7   14 1     
   12    8    9 ar    
   13    8   15 1     
   14    9   10 ar    
   15    9   16 1     
   16   10   11 ar    
   17   10   17 1     
   18   11   18 1     
@<TRIPOS>SUBSTRUCTURE
      1 ****           1
