#       Name:                PHT
#       Creating user name   gbret
#       Creation time:       Fri Sep  9 14:29:21 2016


#       File generated by GOLD software.
#

@<TRIPOS>MOLECULE
PHT
    16    16     1
SMALL
NO_CHARGES


@<TRIPOS>ATOM
      1 O1           2.2466  -1.7221  -1.0832 O.co2          1 <1>                0.0000
      2 C2           1.7118  -1.4191  -0.0263 C.2            1 <1>                0.0000
      3 O3           2.2461  -1.7094   1.0345 O.co2          1 <1>                0.0000
      4 C4           0.4228  -0.6967  -0.0309 C.ar           1 <1>                0.0000
      5 C5          -0.7743  -1.4007  -0.1284 C.ar           1 <1>                0.0000
      6 C6          -1.9784  -0.7201  -0.1324 C.ar           1 <1>                0.0000
      7 C7          -2.0031   0.6598  -0.0400 C.ar           1 <1>                0.0000
      8 C8          -0.8241   1.3764   0.0576 C.ar           1 <1>                0.0000
      9 C9           0.3974   0.7084   0.0691 C.ar           1 <1>                0.0000
     10 C10          1.6598   1.4692   0.1731 C.2            1 <1>                0.0000
     11 O11          1.6319   2.6781   0.3533 O.co2          1 <1>                0.0000
     12 O12          2.7323   0.8898   0.0789 O.co2          1 <1>                0.0000
     13 H13         -0.7628  -2.4782  -0.2012 H              1 <1>                0.0000
     14 H14         -2.9051  -1.2695  -0.2085 H              1 <1>                0.0000
     15 H15         -2.9490   1.1811  -0.0444 H              1 <1>                0.0000
     16 H16         -0.8512   2.4537   0.1294 H              1 <1>                0.0000
@<TRIPOS>BOND
    1    1    2 ar    
    2    2    3 ar    
    3    2    4 1     
    4    4    9 ar    
    5    4    5 ar    
    6    5    6 ar    
    7    5   13 1     
    8    6    7 ar    
    9    6   14 1     
   10    7    8 ar    
   11    7   15 1     
   12    8    9 ar    
   13    8   16 1     
   14    9   10 1     
   15   10   11 ar    
   16   10   12 ar    
@<TRIPOS>SUBSTRUCTURE
      1 ****           1
