#       Name:                PIY
#       Creating user name   gbret
#       Creation time:       Fri Sep  9 14:32:27 2016


#       File generated by GOLD software.
#

@<TRIPOS>MOLECULE
PIY
    19    20     1
SMALL
NO_CHARGES


@<TRIPOS>ATOM
      1 C1          -1.7087   2.8241   0.0305 C.2            1 <1>                0.0000
      2 C2          -0.4348   3.2668   0.0207 C.2            1 <1>                0.0000
      3 N3           0.3734   2.1621   0.0070 N.pl3          1 <1>                0.0000
      4 H4           1.3433   2.1569  -0.0018 H              1 <1>                0.0000
      5 C5          -0.4439   1.0698   0.0090 C.2            1 <1>                0.0000
      6 N6          -1.6905   1.4863   0.0231 N.2            1 <1>                0.0000
      7 C7          -0.0027  -0.3419  -0.0028 C.ar           1 <1>                0.0000
      8 C8           1.3581  -0.6506  -0.0116 C.ar           1 <1>                0.0000
      9 C9           1.7631  -1.9694  -0.0221 C.ar           1 <1>                0.0000
     10 C10          0.8234  -2.9848  -0.0239 C.ar           1 <1>                0.0000
     11 C11         -0.5273  -2.6854  -0.0152 C.ar           1 <1>                0.0000
     12 C12         -0.9454  -1.3707   0.0007 C.ar           1 <1>                0.0000
     13 H13         -2.5929   3.4440   0.0463 H              1 <1>                0.0000
     14 H14         -0.1132   4.2978   0.0226 H              1 <1>                0.0000
     15 H15          2.0926   0.1411  -0.0106 H              1 <1>                0.0000
     16 H16          2.8161  -2.2097  -0.0293 H              1 <1>                0.0000
     17 H17          1.1456  -4.0156  -0.0325 H              1 <1>                0.0000
     18 H18         -1.2559  -3.4826  -0.0171 H              1 <1>                0.0000
     19 H19         -2.0000  -1.1382   0.0074 H              1 <1>                0.0000
@<TRIPOS>BOND
    1    1    6 1     
    2    1    2 2     
    3    1   13 1     
    4    2    3 1     
    5    2   14 1     
    6    3    4 1     
    7    3    5 1     
    8    5    6 2     
    9    5    7 1     
   10    7   12 ar    
   11    7    8 ar    
   12    8    9 ar    
   13    8   15 1     
   14    9   10 ar    
   15    9   16 1     
   16   10   11 ar    
   17   10   17 1     
   18   11   12 ar    
   19   11   18 1     
   20   12   19 1     
@<TRIPOS>SUBSTRUCTURE
      1 ****           1
@<TRIPOS>SET
DONOR_HYDROGENS      STATIC     ATOMS    <user>   **** ""
1 4
ATOM$RED        STATIC     ATOMS    COLORGROUP SYSTEM
1 4
