#       Name:                PK0
#       Creating user name   gbret
#       Creation time:       Fri Sep  9 14:33:09 2016


#       File generated by GOLD software.
#

@<TRIPOS>MOLECULE
PK0
    42    44     1
SMALL
NO_CHARGES


@<TRIPOS>ATOM
      1 C1          -0.1045   3.5783  -0.6100 C.3            1 <1>                0.0000
      2 N2           0.2093   2.1603  -0.4175 N.am           1 <1>                0.0000
      3 C3           0.3255   1.2253  -1.3777 C.2            1 <1>                0.0000
      4 O4           0.1783   1.4517  -2.5626 O.2            1 <1>                0.0000
      5 N5           0.6211   0.0181  -0.8823 N.am           1 <1>                0.0000
      6 C6           0.7283   0.0445   0.4608 C.2            1 <1>                0.0000
      7 O7           0.9863  -0.8864   1.1933 O.2            1 <1>                0.0000
      8 C8           0.4655   1.4817   0.8646 C.3            1 <1>                0.0000
      9 C9           1.6902   2.0775   1.5619 C.3            1 <1>                0.0000
     10 C10         -0.7476   1.5691   1.7544 C.ar           1 <1>                0.0000
     11 C11         -1.9783   1.8929   1.2136 C.ar           1 <1>                0.0000
     12 C12         -3.0919   1.9736   2.0271 C.ar           1 <1>                0.0000
     13 C13         -2.9748   1.7290   3.3876 C.ar           1 <1>                0.0000
     14 O14         -4.0689   1.8074   4.1899 O.3            1 <1>                0.0000
     15 C15         -1.7389   1.4039   3.9277 C.ar           1 <1>                0.0000
     16 C16         -0.6293   1.3198   3.1092 C.ar           1 <1>                0.0000
     17 C17          0.7964  -1.1298  -1.6622 C.ar           1 <1>                0.0000
     18 C18          0.7969  -1.0324  -3.0493 C.ar           1 <1>                0.0000
     19 C19          0.9692  -2.1602  -3.8205 C.ar           1 <1>                0.0000
     20 C20          1.1438  -3.4040  -3.2071 C.ar           1 <1>                0.0000
     21 C21          1.3237  -4.5791  -4.0055 C.1            1 <1>                0.0000
     22 N22          1.4665  -5.5113  -4.6388 N.1            1 <1>                0.0000
     23 C23          1.1427  -3.4978  -1.8130 C.ar           1 <1>                0.0000
     24 C24          0.9754  -2.3643  -1.0484 C.ar           1 <1>                0.0000
     25 C25          1.3305  -4.8364  -1.1466 C.3            1 <1>                0.0000
     26 F26          1.2923  -4.6753   0.2425 F              1 <1>                0.0000
     27 F27          0.3064  -5.7028  -1.5439 F              1 <1>                0.0000
     28 F28          2.5670  -5.3738  -1.5200 F              1 <1>                0.0000
     29 H29          0.8106   4.1254  -0.8371 H              1 <1>                0.0000
     30 H30         -0.8068   3.6861  -1.4366 H              1 <1>                0.0000
     31 H31         -0.5506   3.9786   0.3004 H              1 <1>                0.0000
     32 H32          2.5492   2.0280   0.8927 H              1 <1>                0.0000
     33 H33          1.4908   3.1174   1.8209 H              1 <1>                0.0000
     34 H34          1.9031   1.5116   2.4688 H              1 <1>                0.0000
     35 H35         -2.0689   2.0832   0.1544 H              1 <1>                0.0000
     36 H36         -4.0528   2.2272   1.6043 H              1 <1>                0.0000
     37 H37         -4.5494   0.9733   4.2822 H              1 <1>                0.0000
     38 H38         -1.6451   1.2134   4.9867 H              1 <1>                0.0000
     39 H39          0.3329   1.0663   3.5291 H              1 <1>                0.0000
     40 H40          0.6616  -0.0711  -3.5225 H              1 <1>                0.0000
     41 H41          0.9691  -2.0839  -4.8978 H              1 <1>                0.0000
     42 H42          0.9748  -2.4359   0.0293 H              1 <1>                0.0000
@<TRIPOS>BOND
    1    1    2 1     
    2    1   29 1     
    3    1   30 1     
    4    1   31 1     
    5    2    8 1     
    6    2    3 am    
    7    3    4 2     
    8    3    5 am    
    9    5    6 am    
   10    5   17 1     
   11    6    7 2     
   12    6    8 1     
   13    8    9 1     
   14    8   10 1     
   15    9   32 1     
   16    9   33 1     
   17    9   34 1     
   18   10   16 ar    
   19   10   11 ar    
   20   11   12 ar    
   21   11   35 1     
   22   12   13 ar    
   23   12   36 1     
   24   13   14 1     
   25   13   15 ar    
   26   14   37 1     
   27   15   16 ar    
   28   15   38 1     
   29   16   39 1     
   30   17   24 ar    
   31   17   18 ar    
   32   18   19 ar    
   33   18   40 1     
   34   19   20 ar    
   35   19   41 1     
   36   20   21 1     
   37   20   23 ar    
   38   21   22 3     
   39   23   24 ar    
   40   23   25 1     
   41   24   42 1     
   42   25   26 1     
   43   25   27 1     
   44   25   28 1     
@<TRIPOS>SUBSTRUCTURE
      1 ****           1
@<TRIPOS>SET
DONOR_HYDROGENS      STATIC     ATOMS    <user>   **** ""
1 37
ATOM$RED        STATIC     ATOMS    COLORGROUP SYSTEM
1 37
