#       Name:                PM8
#       Creating user name   gbret
#       Creation time:       Fri Sep  9 14:36:56 2016


#       File generated by GOLD software.
#

@<TRIPOS>MOLECULE
PM8
    72    71     1
SMALL
NO_CHARGES


@<TRIPOS>ATOM
      1 C1          -3.6266  13.1305   5.1635 C.3            1 <1>                0.0000
      2 C2          -3.5700  11.6016   5.1526 C.3            1 <1>                0.0000
      3 C3          -2.7038  11.1317   3.9822 C.3            1 <1>                0.0000
      4 C4          -2.6472   9.6028   3.9712 C.3            1 <1>                0.0000
      5 C5          -1.7810   9.1329   2.8008 C.3            1 <1>                0.0000
      6 C6          -1.7244   7.6040   2.7899 C.3            1 <1>                0.0000
      7 C7          -0.8582   7.1341   1.6195 C.3            1 <1>                0.0000
      8 C8          -0.8016   5.6052   1.6085 C.3            1 <1>                0.0000
      9 C9           0.0646   5.1353   0.4381 C.3            1 <1>                0.0000
     10 C10          0.1204   3.6293   0.4274 C.2            1 <1>                0.0000
     11 O11         -0.4743   2.9942   1.2729 O.2            1 <1>                0.0000
     12 S12          1.0230   2.8148  -0.7780 S.3            1 <1>                0.0000
     13 C13          0.7223   1.0981  -0.2894 C.3            1 <1>                0.0000
     14 C14          1.4520   0.1587  -1.2517 C.3            1 <1>                0.0000
     15 N15          1.2087  -1.2307  -0.8563 N.am           1 <1>                0.0000
     16 C16          1.7558  -2.2386  -1.5644 C.2            1 <1>                0.0000
     17 O17          2.4495  -1.9952  -2.5289 O.2            1 <1>                0.0000
     18 C18          1.5055  -3.6679  -1.1576 C.3            1 <1>                0.0000
     19 C19          2.2352  -4.6073  -2.1199 C.3            1 <1>                0.0000
     20 N20          1.9918  -5.9968  -1.7244 N.am           1 <1>                0.0000
     21 C21          2.5389  -7.0046  -2.4326 C.2            1 <1>                0.0000
     22 O22          3.1567  -6.7663  -3.4487 O.2            1 <1>                0.0000
     23 C23          2.3830  -8.4277  -1.9618 C.3            1 <1>                0.0000
     24 O24          1.7673  -8.4380  -0.6723 O.3            1 <1>                0.0000
     25 C25          1.5074  -9.1992  -2.9512 C.3            1 <1>                0.0000
     26 C26          0.1808  -8.4612  -3.1413 C.3            1 <1>                0.0000
     27 C27          2.2294  -9.3051  -4.2960 C.3            1 <1>                0.0000
     28 C28          1.2367 -10.6028  -2.4058 C.3            1 <1>                0.0000
     29 O29          0.4189 -11.3233  -3.3300 O.3            1 <1>                0.0000
     30 P30         -0.0632 -12.8386  -3.0778 P.3            1 <1>                0.0000
     31 O31         -1.2130 -13.1820  -4.0510 O.co2          1 <1>                0.0000
     32 O32          1.1202 -13.8023  -3.3183 O.co2          1 <1>                0.0000
     33 H33         -2.6188  13.5306   5.2738 H              1 <1>                0.0000
     34 H34         -4.0578  13.4848   4.2272 H              1 <1>                0.0000
     35 H35         -4.2437  13.4653   5.9973 H              1 <1>                0.0000
     36 H36         -3.1389  11.2473   6.0889 H              1 <1>                0.0000
     37 H37         -4.5779  11.2014   5.0423 H              1 <1>                0.0000
     38 H38         -3.1350  11.4860   3.0459 H              1 <1>                0.0000
     39 H39         -1.6959  11.5318   4.0925 H              1 <1>                0.0000
     40 H40         -2.2160   9.2485   4.9075 H              1 <1>                0.0000
     41 H41         -3.6551   9.2026   3.8609 H              1 <1>                0.0000
     42 H42         -2.2122   9.4872   1.8645 H              1 <1>                0.0000
     43 H43         -0.7731   9.5330   2.9111 H              1 <1>                0.0000
     44 H44         -1.2932   7.2496   3.7262 H              1 <1>                0.0000
     45 H45         -2.7323   7.2038   2.6796 H              1 <1>                0.0000
     46 H46         -1.2894   7.4884   0.6832 H              1 <1>                0.0000
     47 H47          0.1497   7.5342   1.7298 H              1 <1>                0.0000
     48 H48         -0.3704   5.2508   2.5448 H              1 <1>                0.0000
     49 H49         -1.8094   5.2050   1.4983 H              1 <1>                0.0000
     50 H50         -0.3665   5.4896  -0.4982 H              1 <1>                0.0000
     51 H51          1.0725   5.5354   0.5484 H              1 <1>                0.0000
     52 H52          1.0913   0.9387   0.7237 H              1 <1>                0.0000
     53 H53         -0.3477   0.8929  -0.3229 H              1 <1>                0.0000
     54 H54          1.0830   0.3181  -2.2649 H              1 <1>                0.0000
     55 H55          2.5220   0.3639  -1.2183 H              1 <1>                0.0000
     56 H56          0.6538  -1.4254  -0.0848 H              1 <1>                0.0000
     57 H57          1.8745  -3.8273  -0.1445 H              1 <1>                0.0000
     58 H58          0.4355  -3.8731  -1.1910 H              1 <1>                0.0000
     59 H59          1.8662  -4.4479  -3.1330 H              1 <1>                0.0000
     60 H60          3.3052  -4.4021  -2.0865 H              1 <1>                0.0000
     61 H61          1.4370  -6.1914  -0.9530 H              1 <1>                0.0000
     62 H62          3.3637  -8.8994  -1.8999 H              1 <1>                0.0000
     63 H63          0.8893  -8.0331  -0.6524 H              1 <1>                0.0000
     64 H64          0.3737  -7.4612  -3.5299 H              1 <1>                0.0000
     65 H65         -0.4430  -9.0108  -3.8462 H              1 <1>                0.0000
     66 H66         -0.3335  -8.3857  -2.1832 H              1 <1>                0.0000
     67 H67          3.2224  -9.7276  -4.1430 H              1 <1>                0.0000
     68 H68          1.6592  -9.9500  -4.9647 H              1 <1>                0.0000
     69 H69          2.3207  -8.3131  -4.7385 H              1 <1>                0.0000
     70 H70          2.1818 -11.1285  -2.2704 H              1 <1>                0.0000
     71 H71          0.7224 -10.5273  -1.4477 H              1 <1>                0.0000
     72 H72         -0.5192 -12.9738  -1.7398 H              1 <1>                0.0000
@<TRIPOS>BOND
    1    1    2 1     
    2    1   33 1     
    3    1   34 1     
    4    1   35 1     
    5    2    3 1     
    6    2   36 1     
    7    2   37 1     
    8    3    4 1     
    9    3   38 1     
   10    3   39 1     
   11    4    5 1     
   12    4   40 1     
   13    4   41 1     
   14    5    6 1     
   15    5   42 1     
   16    5   43 1     
   17    6    7 1     
   18    6   44 1     
   19    6   45 1     
   20    7    8 1     
   21    7   46 1     
   22    7   47 1     
   23    8    9 1     
   24    8   48 1     
   25    8   49 1     
   26    9   10 1     
   27    9   50 1     
   28    9   51 1     
   29   10   11 2     
   30   10   12 1     
   31   12   13 1     
   32   13   14 1     
   33   13   52 1     
   34   13   53 1     
   35   14   15 1     
   36   14   54 1     
   37   14   55 1     
   38   15   16 am    
   39   15   56 1     
   40   16   17 2     
   41   16   18 1     
   42   18   19 1     
   43   18   57 1     
   44   18   58 1     
   45   19   20 1     
   46   19   59 1     
   47   19   60 1     
   48   20   21 am    
   49   20   61 1     
   50   21   22 2     
   51   21   23 1     
   52   23   24 1     
   53   23   25 1     
   54   23   62 1     
   55   24   63 1     
   56   25   26 1     
   57   25   27 1     
   58   25   28 1     
   59   26   64 1     
   60   26   65 1     
   61   26   66 1     
   62   27   67 1     
   63   27   68 1     
   64   27   69 1     
   65   28   29 1     
   66   28   70 1     
   67   28   71 1     
   68   29   30 1     
   69   30   31 ar    
   70   30   32 ar    
   71   30   72 1     
@<TRIPOS>SUBSTRUCTURE
      1 ****           1
@<TRIPOS>SET
DONOR_HYDROGENS      STATIC     ATOMS    <user>   **** ""
3 56 61 63
ATOM$RED        STATIC     ATOMS    COLORGROUP SYSTEM
3 56 61 63
