#       Name:                PMN
#       Creating user name   gbret
#       Creation time:       Fri Sep  9 14:37:52 2016


#       File generated by GOLD software.
#

@<TRIPOS>MOLECULE
PMN
    58    62     1
SMALL
NO_CHARGES


@<TRIPOS>ATOM
      1 C1           3.9209   0.8629  -2.3162 C.3            1 <1>                0.0000
      2 C2           3.5294   0.0879  -1.0582 C.3            1 <1>                0.0000
      3 C3           2.6413  -1.1585  -1.3414 C.3            1 <1>                0.0000
      4 C4           2.9020  -1.9709  -0.0508 C.3            1 <1>                0.0000
      5 C5           4.4564  -1.9769  -0.0576 C.3            1 <1>                0.0000
      6 C6           4.7503  -0.4573  -0.2567 C.3            1 <1>                0.0000
      7 C7           4.5343   0.1565   1.1617 C.3            1 <1>                0.0000
      8 C8           2.9744   0.2409   1.1677 C.3            1 <1>                0.0000
      9 O9           2.7417   0.8606  -0.1175 O.3            1 <1>                0.0000
     10 C10          2.4577  -1.1989   1.1792 C.3            1 <1>                0.0000
     11 C11          0.9777  -1.3071   1.4855 C.3            1 <1>                0.0000
     12 C12          0.7356  -0.8712   2.9479 C.3            1 <1>                0.0000
     13 C13          0.1264  -0.4129   0.5820 C.3            1 <1>                0.0000
     14 C14         -1.3501  -0.5753   0.9489 C.3            1 <1>                0.0000
     15 C15         -2.1887   0.3055   0.0590 C.2            1 <1>                0.0000
     16 O16         -1.6576   0.9953  -0.7858 O.2            1 <1>                0.0000
     17 N17         -3.5287   0.3268   0.2016 N.am           1 <1>                0.0000
     18 C18         -4.3008   1.2235  -0.5536 C.ar           1 <1>                0.0000
     19 C19         -4.7907   0.8428  -1.7998 C.ar           1 <1>                0.0000
     20 O20         -4.5207  -0.3970  -2.2825 O.3            1 <1>                0.0000
     21 C21         -5.5562   1.7276  -2.5521 C.ar           1 <1>                0.0000
     22 C22         -5.8357   2.9857  -2.0718 C.ar           1 <1>                0.0000
     23 C23         -5.3496   3.3827  -0.8197 C.ar           1 <1>                0.0000
     24 C24         -5.6473   4.7260  -0.3053 C.2            1 <1>                0.0000
     25 O25         -6.3213   5.5007  -0.9711 O.co2          1 <1>                0.0000
     26 O26         -5.2213   5.0704   0.7890 O.co2          1 <1>                0.0000
     27 C27         -4.5814   2.4895  -0.0556 C.ar           1 <1>                0.0000
     28 O28         -4.1062   2.8653   1.1586 O.3            1 <1>                0.0000
     29 C29          0.5202  -2.7449   1.3578 C.2            1 <1>                0.0000
     30 O30         -0.4631  -3.1168   1.9784 O.2            1 <1>                0.0000
     31 C31          1.2349  -3.6922   0.5065 C.2            1 <1>                0.0000
     32 C32          2.3371  -3.3367  -0.1498 C.2            1 <1>                0.0000
     33 H33          4.4841   0.2110  -2.9840 H              1 <1>                0.0000
     34 H34          3.0211   1.2119  -2.8227 H              1 <1>                0.0000
     35 H35          4.5368   1.7184  -2.0390 H              1 <1>                0.0000
     36 H36          1.5996  -0.8972  -1.4789 H              1 <1>                0.0000
     37 H37          3.0105  -1.7009  -2.2210 H              1 <1>                0.0000
     38 H38          4.8427  -2.3374   0.8934 H              1 <1>                0.0000
     39 H39          4.8325  -2.5671  -0.8914 H              1 <1>                0.0000
     40 H40          5.7196  -0.2379  -0.7043 H              1 <1>                0.0000
     41 H41          4.8952  -0.5073   1.9456 H              1 <1>                0.0000
     42 H42          4.9811   1.1466   1.2415 H              1 <1>                0.0000
     43 H43          2.6016   0.8391   1.9964 H              1 <1>                0.0000
     44 H44          2.9805  -1.6840   2.0373 H              1 <1>                0.0000
     45 H45          1.0643   0.1597   3.0789 H              1 <1>                0.0000
     46 H46         -0.3273  -0.9457   3.1780 H              1 <1>                0.0000
     47 H47          1.2989  -1.5202   3.6185 H              1 <1>                0.0000
     48 H48          0.4222   0.6274   0.7176 H              1 <1>                0.0000
     49 H49          0.2759  -0.7005  -0.4587 H              1 <1>                0.0000
     50 H50         -1.6459  -1.6156   0.8133 H              1 <1>                0.0000
     51 H51         -1.4996  -0.2877   1.9896 H              1 <1>                0.0000
     52 H52         -3.9596  -0.2775   0.8261 H              1 <1>                0.0000
     53 H53         -5.1891  -1.0596  -2.0606 H              1 <1>                0.0000
     54 H54         -5.9325   1.4253  -3.5182 H              1 <1>                0.0000
     55 H55         -6.4304   3.6682  -2.6609 H              1 <1>                0.0000
     56 H56         -4.7039   2.6688   1.8929 H              1 <1>                0.0000
     57 H57          0.8620  -4.7048   0.4053 H              1 <1>                0.0000
     58 H58          2.8360  -4.0646  -0.7742 H              1 <1>                0.0000
@<TRIPOS>BOND
    1    1    2 1     
    2    1   33 1     
    3    1   34 1     
    4    1   35 1     
    5    2    6 1     
    6    2    9 1     
    7    2    3 1     
    8    3    4 1     
    9    3   36 1     
   10    3   37 1     
   11    4   10 1     
   12    4   32 1     
   13    4    5 1     
   14    5    6 1     
   15    5   38 1     
   16    5   39 1     
   17    6    7 1     
   18    6   40 1     
   19    7    8 1     
   20    7   41 1     
   21    7   42 1     
   22    8    9 1     
   23    8   10 1     
   24    8   43 1     
   25   10   11 1     
   26   10   44 1     
   27   11   12 1     
   28   11   13 1     
   29   11   29 1     
   30   12   45 1     
   31   12   46 1     
   32   12   47 1     
   33   13   14 1     
   34   13   48 1     
   35   13   49 1     
   36   14   15 1     
   37   14   50 1     
   38   14   51 1     
   39   15   16 2     
   40   15   17 am    
   41   17   18 1     
   42   17   52 1     
   43   18   27 ar    
   44   18   19 ar    
   45   19   20 1     
   46   19   21 ar    
   47   20   53 1     
   48   21   22 ar    
   49   21   54 1     
   50   22   23 ar    
   51   22   55 1     
   52   23   24 1     
   53   23   27 ar    
   54   24   25 ar    
   55   24   26 ar    
   56   27   28 1     
   57   28   56 1     
   58   29   30 2     
   59   29   31 1     
   60   31   32 2     
   61   31   57 1     
   62   32   58 1     
@<TRIPOS>SUBSTRUCTURE
      1 ****           1
@<TRIPOS>SET
DONOR_HYDROGENS      STATIC     ATOMS    <user>   **** ""
3 52 53 56
ATOM$RED        STATIC     ATOMS    COLORGROUP SYSTEM
3 52 53 56
