#       Name:                PMV
#       Creating user name   gbret
#       Creation time:       Fri Sep  9 14:38:20 2016


#       File generated by GOLD software.
#

@<TRIPOS>MOLECULE
PMV
    24    23     1
SMALL
NO_CHARGES


@<TRIPOS>ATOM
      1 C1           0.9536   1.4416  -0.3751 C.3            1 <1>                0.0000
      2 C2           0.9744  -0.0883  -0.3835 C.3            1 <1>                0.0000
      3 O3           1.6655  -0.5616   0.7742 O.3            1 <1>                0.0000
      4 C4          -0.4610  -0.6178  -0.3726 C.3            1 <1>                0.0000
      5 C5          -1.2145  -0.0245   0.8195 C.3            1 <1>                0.0000
      6 O6          -2.5552  -0.5191   0.8296 O.3            1 <1>                0.0000
      7 P7          -3.6353  -0.1020   1.9483 P.3            1 <1>                0.0000
      8 O8          -3.9461   1.4289   1.8289 O.co2          1 <1>                0.0000
      9 O9          -4.9533  -0.9209   1.7326 O.co2          1 <1>                0.0000
     10 O10         -3.0574  -0.4080   3.3719 O.co2          1 <1>                0.0000
     11 C11          1.6905  -0.5817  -1.6423 C.3            1 <1>                0.0000
     12 C12          3.1043  -0.0601  -1.6530 C.2            1 <1>                0.0000
     13 O13          3.5023   0.6413  -0.7385 O.co2          1 <1>                0.0000
     14 O14          3.8502  -0.3394  -2.5761 O.co2          1 <1>                0.0000
     15 H15          1.9762   1.8189  -0.3828 H              1 <1>                0.0000
     16 H16          0.4264   1.8026  -1.2581 H              1 <1>                0.0000
     17 H17          0.4434   1.7931   0.5217 H              1 <1>                0.0000
     18 H18          1.7174  -1.5254   0.8347 H              1 <1>                0.0000
     19 H19         -0.9611  -0.3312  -1.2977 H              1 <1>                0.0000
     20 H20         -0.4467  -1.7045  -0.2890 H              1 <1>                0.0000
     21 H21         -0.7145  -0.3112   1.7446 H              1 <1>                0.0000
     22 H22         -1.2288   1.0622   0.7359 H              1 <1>                0.0000
     23 H23          1.7053  -1.6716  -1.6483 H              1 <1>                0.0000
     24 H24          1.1633  -0.2206  -2.5253 H              1 <1>                0.0000
@<TRIPOS>BOND
    1    1    2 1     
    2    1   15 1     
    3    1   16 1     
    4    1   17 1     
    5    2    3 1     
    6    2    4 1     
    7    2   11 1     
    8    3   18 1     
    9    4    5 1     
   10    4   19 1     
   11    4   20 1     
   12    5    6 1     
   13    5   21 1     
   14    5   22 1     
   15    6    7 1     
   16    7    8 ar    
   17    7    9 ar    
   18    7   10 ar    
   19   11   12 1     
   20   11   23 1     
   21   11   24 1     
   22   12   13 ar    
   23   12   14 ar    
@<TRIPOS>SUBSTRUCTURE
      1 ****           1
@<TRIPOS>SET
DONOR_HYDROGENS      STATIC     ATOMS    <user>   **** ""
1 18
ATOM$RED        STATIC     ATOMS    COLORGROUP SYSTEM
1 18
