#       Name:                PNU
#       Creating user name   gbret
#       Creation time:       Fri Sep  9 14:40:20 2016


#       File generated by GOLD software.
#

@<TRIPOS>MOLECULE
PNU
    31    33     1
SMALL
NO_CHARGES


@<TRIPOS>ATOM
      1 C1          -0.0997   1.8477   0.2832 C.3            1 <1>                0.0000
      2 C2          -0.0789   0.3178   0.2748 C.3            1 <1>                0.0000
      3 S3           0.7683  -0.2659  -1.2144 S.3            1 <1>                0.0000
      4 C4          -0.3470   0.3153  -2.4485 C.ar           1 <1>                0.0000
      5 N5          -0.0796   0.0774  -3.7246 N.ar           1 <1>                0.0000
      6 C6          -0.9007   0.5025  -4.6795 C.ar           1 <1>                0.0000
      7 N7          -0.6180   0.2515  -6.0124 N.pl3          1 <1>                0.0000
      8 C8          -2.0524   1.2049  -4.3201 C.ar           1 <1>                0.0000
      9 C9          -2.2946   1.4320  -2.9775 C.ar           1 <1>                0.0000
     10 Cl10        -3.7118   2.3000  -2.4759 Cl             1 <1>                0.0000
     11 N11         -1.4350   0.9746  -2.0772 N.ar           1 <1>                0.0000
     12 C12          0.6499  -0.1814   1.4957 C.ar           1 <1>                0.0000
     13 C13          0.0291  -1.0672   2.3331 C.ar           1 <1>                0.0000
     14 C14          0.7186  -1.5198   3.4590 C.ar           1 <1>                0.0000
     15 C15          0.4283  -2.4326   4.5650 C.2            1 <1>                0.0000
     16 C16          1.5245  -2.4421   5.3391 C.2            1 <1>                0.0000
     17 O17          2.4625  -1.6283   4.8245 O.3            1 <1>                0.0000
     18 C18          2.0258  -1.0483   3.6907 C.ar           1 <1>                0.0000
     19 C19          2.5729  -0.1514   2.7856 C.ar           1 <1>                0.0000
     20 N20          1.8798   0.2405   1.7351 N.ar           1 <1>                0.0000
     21 H21          0.9229   2.2250   0.2755 H              1 <1>                0.0000
     22 H22         -0.6269   2.2087  -0.5998 H              1 <1>                0.0000
     23 H23         -0.6099   2.1992   1.1800 H              1 <1>                0.0000
     24 H24         -1.1015  -0.0595   0.2826 H              1 <1>                0.0000
     25 H25          0.1839  -0.2376  -6.2543 H              1 <1>                0.0000
     26 H26         -1.2221   0.5650  -6.7036 H              1 <1>                0.0000
     27 H27         -2.7384   1.5631  -5.0734 H              1 <1>                0.0000
     28 H28         -0.9744  -1.4092   2.1273 H              1 <1>                0.0000
     29 H29         -0.4846  -2.9867   4.7263 H              1 <1>                0.0000
     30 H30          1.6367  -3.0198   6.2446 H              1 <1>                0.0000
     31 H31          3.5733   0.2251   2.9402 H              1 <1>                0.0000
@<TRIPOS>BOND
    1    1    2 1     
    2    1   21 1     
    3    1   22 1     
    4    1   23 1     
    5    2    3 1     
    6    2   12 1     
    7    2   24 1     
    8    3    4 1     
    9    4   11 ar    
   10    4    5 ar    
   11    5    6 ar    
   12    6    7 1     
   13    6    8 ar    
   14    7   25 1     
   15    7   26 1     
   16    8    9 ar    
   17    8   27 1     
   18    9   10 1     
   19    9   11 ar    
   20   12   20 ar    
   21   12   13 ar    
   22   13   14 ar    
   23   13   28 1     
   24   14   18 ar    
   25   14   15 1     
   26   15   16 2     
   27   15   29 1     
   28   16   17 1     
   29   16   30 1     
   30   17   18 1     
   31   18   19 ar    
   32   19   20 ar    
   33   19   31 1     
@<TRIPOS>SUBSTRUCTURE
      1 ****           1
@<TRIPOS>SET
DONOR_HYDROGENS      STATIC     ATOMS    <user>   **** ""
2 25 26
ATOM$RED        STATIC     ATOMS    COLORGROUP SYSTEM
2 25 26
