#       Name:                PNX
#       Creating user name   gbret
#       Creation time:       Fri Sep  9 14:40:32 2016


#       File generated by GOLD software.
#

@<TRIPOS>MOLECULE
PNX
    38    39     1
SMALL
NO_CHARGES


@<TRIPOS>ATOM
      1 C1           3.2659   5.6024   0.2682 C.3            1 <1>                0.0000
      2 C2           3.2864   4.0955   0.2599 C.2            1 <1>                0.0000
      3 O3           4.3403   3.5060   0.2467 O.2            1 <1>                0.0000
      4 C4           1.9917   3.3243   0.2681 C.3            1 <1>                0.0000
      5 C5           2.2916   1.8241   0.2572 C.3            1 <1>                0.0000
      6 C6           0.9771   1.0411   0.2656 C.3            1 <1>                0.0000
      7 C7           1.2771  -0.4592   0.2546 C.3            1 <1>                0.0000
      8 N8           0.0185  -1.2088   0.2626 N.am           1 <1>                0.0000
      9 C9          -0.5419  -1.5491   1.4361 C.2            1 <1>                0.0000
     10 O10          0.0088  -1.2272   2.4713 O.2            1 <1>                0.0000
     11 N11         -1.6978  -2.2369   1.4942 N.am           1 <1>                0.0000
     12 C12         -2.2759  -2.5872   2.7939 C.3            1 <1>                0.0000
     13 C13         -2.3418  -2.6135   0.3267 C.2            1 <1>                0.0000
     14 N14         -3.4678  -3.2821   0.0644 N.2            1 <1>                0.0000
     15 C15         -3.6365  -3.3757  -1.2299 C.2            1 <1>                0.0000
     16 N16         -2.6177  -2.7660  -1.8665 N.pl3          1 <1>                0.0000
     17 C17         -2.4394  -2.6514  -3.3161 C.3            1 <1>                0.0000
     18 C18         -1.7739  -2.2689  -0.8935 C.2            1 <1>                0.0000
     19 C19         -0.5636  -1.5426  -0.9080 C.2            1 <1>                0.0000
     20 O20         -0.0495  -1.2229  -1.9649 O.2            1 <1>                0.0000
     21 H21          4.2885   5.9797   0.2605 H              1 <1>                0.0000
     22 H22          2.7388   5.9635  -0.6149 H              1 <1>                0.0000
     23 H23          2.7557   5.9539   1.1650 H              1 <1>                0.0000
     24 H24          1.4251   3.5751   1.1649 H              1 <1>                0.0000
     25 H25          1.4081   3.5846  -0.6149 H              1 <1>                0.0000
     26 H26          2.8582   1.5733  -0.6396 H              1 <1>                0.0000
     27 H27          2.8752   1.5638   1.1403 H              1 <1>                0.0000
     28 H28          0.4106   1.2919   1.1624 H              1 <1>                0.0000
     29 H29          0.3937   1.3014  -0.6175 H              1 <1>                0.0000
     30 H30          1.8436  -0.7099  -0.6421 H              1 <1>                0.0000
     31 H31          1.8606  -0.7194   1.1377 H              1 <1>                0.0000
     32 H32         -1.6346  -2.2098   3.5904 H              1 <1>                0.0000
     33 H33         -3.2666  -2.1413   2.8831 H              1 <1>                0.0000
     34 H34         -2.3567  -3.6712   2.8754 H              1 <1>                0.0000
     35 H35         -4.4668  -3.8679  -1.7146 H              1 <1>                0.0000
     36 H36         -2.9208  -1.7399  -3.6704 H              1 <1>                0.0000
     37 H37         -1.3754  -2.6146  -3.5495 H              1 <1>                0.0000
     38 H38         -2.8895  -3.5144  -3.8068 H              1 <1>                0.0000
@<TRIPOS>BOND
    1    1    2 1     
    2    1   21 1     
    3    1   22 1     
    4    1   23 1     
    5    2    3 2     
    6    2    4 1     
    7    4    5 1     
    8    4   24 1     
    9    4   25 1     
   10    5    6 1     
   11    5   26 1     
   12    5   27 1     
   13    6    7 1     
   14    6   28 1     
   15    6   29 1     
   16    7    8 1     
   17    7   30 1     
   18    7   31 1     
   19    8   19 am    
   20    8    9 am    
   21    9   10 2     
   22    9   11 am    
   23   11   12 1     
   24   11   13 1     
   25   12   32 1     
   26   12   33 1     
   27   12   34 1     
   28   13   18 2     
   29   13   14 1     
   30   14   15 2     
   31   15   16 1     
   32   15   35 1     
   33   16   17 1     
   34   16   18 1     
   35   17   36 1     
   36   17   37 1     
   37   17   38 1     
   38   18   19 1     
   39   19   20 2     
@<TRIPOS>SUBSTRUCTURE
      1 ****           1
