#       Name:                POS
#       Creating user name   gbret
#       Creation time:       Fri Sep  9 14:42:09 2016


#       File generated by GOLD software.
#

@<TRIPOS>MOLECULE
POS
    70    72     1
SMALL
NO_CHARGES


@<TRIPOS>ATOM
      1 C1           5.8529   1.7070  -1.7207 C.3            1 <1>                0.0000
      2 C2           5.4790   0.2235  -1.7315 C.3            1 <1>                0.0000
      3 C3           6.2626  -0.5079  -0.6397 C.3            1 <1>                0.0000
      4 C4           3.9790   0.0736  -1.4700 C.3            1 <1>                0.0000
      5 C5           3.1949   0.6971  -2.6265 C.3            1 <1>                0.0000
      6 N6           3.4518  -0.0594  -3.8545 N.am           1 <1>                0.0000
      7 C7           4.5341   0.2232  -4.6062 C.2            1 <1>                0.0000
      8 O8           5.2969   1.1055  -4.2654 O.2            1 <1>                0.0000
      9 C9           4.7938  -0.5418  -5.8480 C.ar           1 <1>                0.0000
     10 C10          3.9257  -1.5570  -6.2613 C.ar           1 <1>                0.0000
     11 C11          4.2059  -2.2448  -7.4262 C.ar           1 <1>                0.0000
     12 N12          5.2734  -1.9553  -8.1431 N.ar           1 <1>                0.0000
     13 C13          6.1171  -1.0063  -7.7895 C.ar           1 <1>                0.0000
     14 C14          5.9106  -0.2648  -6.6423 C.ar           1 <1>                0.0000
     15 C15          1.7215   0.6597  -2.3123 C.2            1 <1>                0.0000
     16 O16          0.9609   0.0601  -3.0422 O.2            1 <1>                0.0000
     17 N17          1.2491   1.2925  -1.2201 N.am           1 <1>                0.0000
     18 C18         -0.1832   1.2561  -0.9147 C.3            1 <1>                0.0000
     19 C19         -0.4514   2.0462   0.3678 C.3            1 <1>                0.0000
     20 O20         -0.1461   3.4252   0.1504 O.3            1 <1>                0.0000
     21 C21         -1.9248   1.9050   0.7551 C.3            1 <1>                0.0000
     22 N22         -2.1816   2.6615   1.9831 N.pl3          1 <1>                0.0000
     23 S23         -3.7378   3.0009   2.4364 S.o2           1 <1>                0.0000
     24 O24         -3.6526   3.7048   3.6679 O.2            1 <1>                0.0000
     25 O25         -4.3860   3.5243   1.2852 O.2            1 <1>                0.0000
     26 C26         -4.5235   1.4649   2.7946 C.ar           1 <1>                0.0000
     27 C27         -5.1779   0.7741   1.7914 C.ar           1 <1>                0.0000
     28 C28         -5.7946  -0.4303   2.0696 C.ar           1 <1>                0.0000
     29 C29         -5.7570  -0.9466   3.3569 C.ar           1 <1>                0.0000
     30 O30         -6.3625  -2.1314   3.6331 O.3            1 <1>                0.0000
     31 C31         -6.3066  -2.5941   4.9095 C.ar           1 <1>                0.0000
     32 C32         -7.2981  -2.2507   5.8173 C.ar           1 <1>                0.0000
     33 C33         -7.2392  -2.7229   7.1141 C.ar           1 <1>                0.0000
     34 C34         -6.1931  -3.5367   7.5079 C.ar           1 <1>                0.0000
     35 C35         -5.2037  -3.8805   6.6053 C.ar           1 <1>                0.0000
     36 C36         -5.2609  -3.4157   5.3057 C.ar           1 <1>                0.0000
     37 C37         -5.0995  -0.2513   4.3618 C.ar           1 <1>                0.0000
     38 C38         -4.4796   0.9499   4.0770 C.ar           1 <1>                0.0000
     39 H39          6.9216   1.8138  -1.9070 H              1 <1>                0.0000
     40 H40          5.2947   2.2281  -2.4985 H              1 <1>                0.0000
     41 H41          5.6089   2.1362  -0.7489 H              1 <1>                0.0000
     42 H42          5.7231  -0.2057  -2.7033 H              1 <1>                0.0000
     43 H43          6.0186  -0.0788   0.3321 H              1 <1>                0.0000
     44 H44          5.9962  -1.5648  -0.6474 H              1 <1>                0.0000
     45 H45          7.3312  -0.4012  -0.8260 H              1 <1>                0.0000
     46 H46          3.7281  -0.9840  -1.3894 H              1 <1>                0.0000
     47 H47          3.7198   0.5804  -0.5404 H              1 <1>                0.0000
     48 H48          3.5110   1.7312  -2.7640 H              1 <1>                0.0000
     49 H49          2.8428  -0.7638  -4.1265 H              1 <1>                0.0000
     50 H50          3.0496  -1.8000  -5.6785 H              1 <1>                0.0000
     51 H51          3.5414  -3.0306  -7.7537 H              1 <1>                0.0000
     52 H52          6.9795  -0.8030  -8.4071 H              1 <1>                0.0000
     53 H53          6.6058   0.5115  -6.3588 H              1 <1>                0.0000
     54 H54          1.8575   1.7720  -0.6363 H              1 <1>                0.0000
     55 H55         -0.7418   1.7003  -1.7386 H              1 <1>                0.0000
     56 H56         -0.4993   0.2221  -0.7772 H              1 <1>                0.0000
     57 H57          0.1743   1.6579   1.1714 H              1 <1>                0.0000
     58 H58         -0.6667   3.8372  -0.5527 H              1 <1>                0.0000
     59 H59         -2.5506   2.2933  -0.0485 H              1 <1>                0.0000
     60 H60         -2.1577   0.8532   0.9209 H              1 <1>                0.0000
     61 H61         -1.4401   2.9636   2.5306 H              1 <1>                0.0000
     62 H62         -5.2072   1.1766   0.7897 H              1 <1>                0.0000
     63 H63         -6.3060  -0.9693   1.2858 H              1 <1>                0.0000
     64 H64         -8.1151  -1.6144   5.5104 H              1 <1>                0.0000
     65 H65         -8.0107  -2.4558   7.8211 H              1 <1>                0.0000
     66 H66         -6.1485  -3.9043   8.5225 H              1 <1>                0.0000
     67 H67         -4.3875  -4.5161   6.9155 H              1 <1>                0.0000
     68 H68         -4.4881  -3.6848   4.6009 H              1 <1>                0.0000
     69 H69         -5.0688  -0.6510   5.3646 H              1 <1>                0.0000
     70 H70         -3.9675   1.4913   4.8587 H              1 <1>                0.0000
@<TRIPOS>BOND
    1    1    2 1     
    2    1   39 1     
    3    1   40 1     
    4    1   41 1     
    5    2    3 1     
    6    2    4 1     
    7    2   42 1     
    8    3   43 1     
    9    3   44 1     
   10    3   45 1     
   11    4    5 1     
   12    4   46 1     
   13    4   47 1     
   14    5    6 1     
   15    5   15 1     
   16    5   48 1     
   17    6    7 am    
   18    6   49 1     
   19    7    8 2     
   20    7    9 1     
   21    9   14 ar    
   22    9   10 ar    
   23   10   11 ar    
   24   10   50 1     
   25   11   12 ar    
   26   11   51 1     
   27   12   13 ar    
   28   13   14 ar    
   29   13   52 1     
   30   14   53 1     
   31   15   16 2     
   32   15   17 am    
   33   17   18 1     
   34   17   54 1     
   35   18   19 1     
   36   18   55 1     
   37   18   56 1     
   38   19   20 1     
   39   19   21 1     
   40   19   57 1     
   41   20   58 1     
   42   21   22 1     
   43   21   59 1     
   44   21   60 1     
   45   22   23 1     
   46   22   61 1     
   47   23   24 2     
   48   23   25 2     
   49   23   26 1     
   50   26   38 ar    
   51   26   27 ar    
   52   27   28 ar    
   53   27   62 1     
   54   28   29 ar    
   55   28   63 1     
   56   29   30 1     
   57   29   37 ar    
   58   30   31 1     
   59   31   36 ar    
   60   31   32 ar    
   61   32   33 ar    
   62   32   64 1     
   63   33   34 ar    
   64   33   65 1     
   65   34   35 ar    
   66   34   66 1     
   67   35   36 ar    
   68   35   67 1     
   69   36   68 1     
   70   37   38 ar    
   71   37   69 1     
   72   38   70 1     
@<TRIPOS>SUBSTRUCTURE
      1 ****           1
@<TRIPOS>SET
DONOR_HYDROGENS      STATIC     ATOMS    <user>   **** ""
4 49 54 58 61
ATOM$RED        STATIC     ATOMS    COLORGROUP SYSTEM
4 49 54 58 61
