#       Name:                POZ
#       Creating user name   gbret
#       Creation time:       Fri Sep  9 14:42:39 2016


#       File generated by GOLD software.
#

@<TRIPOS>MOLECULE
POZ
    93    99     1
SMALL
NO_CHARGES


@<TRIPOS>ATOM
      1 C1           9.6979  -3.3626  -6.3098 C.3            1 <1>                0.0000
      2 C2           9.7187  -4.8925  -6.3182 C.3            1 <1>                0.0000
      3 C3           8.2833  -5.4220  -6.3073 C.3            1 <1>                0.0000
      4 C4           8.3009  -6.9461  -6.4414 C.3            1 <1>                0.0000
      5 C5           6.8656  -7.4756  -6.4305 C.3            1 <1>                0.0000
      6 O6           8.9332  -7.3088  -7.6705 O.3            1 <1>                0.0000
      7 N7           7.6351  -5.0502  -5.0473 N.am           1 <1>                0.0000
      8 N8           8.0552  -5.4100  -3.7594 N.2            1 <1>                0.0000
      9 C9           7.2294  -4.8938  -2.9070 C.2            1 <1>                0.0000
     10 N10          6.2639  -4.1951  -3.5927 N.am           1 <1>                0.0000
     11 C11          5.1918  -3.4948  -3.0178 C.ar           1 <1>                0.0000
     12 C12          4.2807  -2.8326  -3.8293 C.ar           1 <1>                0.0000
     13 C13          3.2258  -2.1441  -3.2643 C.ar           1 <1>                0.0000
     14 C14          3.0763  -2.1140  -1.8837 C.ar           1 <1>                0.0000
     15 C15          3.9881  -2.7767  -1.0722 C.ar           1 <1>                0.0000
     16 C16          5.0397  -3.4694  -1.6382 C.ar           1 <1>                0.0000
     17 N17          2.0081  -1.4163  -1.3110 N.3            1 <1>                0.0000
     18 C18          0.7229  -1.8942  -1.8397 C.3            1 <1>                0.0000
     19 C19         -0.4124  -1.0544  -1.2496 C.3            1 <1>                0.0000
     20 N20         -0.3800  -1.1526   0.2163 N.3            1 <1>                0.0000
     21 C21          0.9052  -0.6747   0.7451 C.3            1 <1>                0.0000
     22 C22          2.0405  -1.5146   0.1550 C.3            1 <1>                0.0000
     23 C23         -1.4488  -0.4544   0.7895 C.ar           1 <1>                0.0000
     24 C24         -2.3635   0.2038  -0.0219 C.ar           1 <1>                0.0000
     25 C25         -3.4180   0.8926   0.5446 C.ar           1 <1>                0.0000
     26 C26         -3.5636   0.9270   1.9235 C.ar           1 <1>                0.0000
     27 O27         -4.6026   1.6052   2.4805 O.3            1 <1>                0.0000
     28 C28         -4.6913   1.5990   3.9067 C.3            1 <1>                0.0000
     29 C29         -5.9141   2.4073   4.3452 C.3            1 <1>                0.0000
     30 C30         -6.0600   2.3680   5.8873 C.3            1 <1>                0.0000
     31 C31         -6.8593   3.6751   6.1411 C.3            1 <1>                0.0000
     32 C32         -6.3066   4.6147   5.0479 C.3            1 <1>                0.0000
     33 C33         -5.2302   5.5254   5.6419 C.3            1 <1>                0.0000
     34 N34         -4.7962   6.4925   4.6306 N.pl3          1 <1>                0.0000
     35 C35         -4.7803   7.8313   4.7505 C.2            1 <1>                0.0000
     36 N36         -4.3256   8.3338   3.6314 N.2            1 <1>                0.0000
     37 C37         -4.0418   7.3513   2.7772 C.2            1 <1>                0.0000
     38 N38         -4.3084   6.2047   3.3455 N.2            1 <1>                0.0000
     39 O39         -5.7369   3.7953   4.0204 O.3            1 <1>                0.0000
     40 C40         -7.4245   5.4492   4.4779 C.ar           1 <1>                0.0000
     41 C41         -7.7313   5.3669   3.1326 C.ar           1 <1>                0.0000
     42 C42         -8.7564   6.1312   2.6086 C.ar           1 <1>                0.0000
     43 C43         -9.4777   6.9805   3.4310 C.ar           1 <1>                0.0000
     44 F44        -10.4802   7.7272   2.9186 F              1 <1>                0.0000
     45 C45         -9.1715   7.0636   4.7781 C.ar           1 <1>                0.0000
     46 C46         -8.1477   6.2936   5.3030 C.ar           1 <1>                0.0000
     47 F47         -7.8477   6.3737   6.6178 F              1 <1>                0.0000
     48 C48         -2.6504   0.2699   2.7347 C.ar           1 <1>                0.0000
     49 C49         -1.5985  -0.4242   2.1696 C.ar           1 <1>                0.0000
     50 C50          6.5265  -4.2930  -4.9115 C.2            1 <1>                0.0000
     51 O51          5.8777  -3.7959  -5.8147 O.2            1 <1>                0.0000
     52 H52         10.7205  -2.9853  -6.3175 H              1 <1>                0.0000
     53 H53          9.1707  -3.0016  -7.1928 H              1 <1>                0.0000
     54 H54          9.1877  -3.0111  -5.4130 H              1 <1>                0.0000
     55 H55         10.2289  -5.2440  -7.2150 H              1 <1>                0.0000
     56 H56         10.2459  -5.2535  -5.4351 H              1 <1>                0.0000
     57 H57          7.7304  -4.9903  -7.1416 H              1 <1>                0.0000
     58 H58          8.8538  -7.3778  -5.6071 H              1 <1>                0.0000
     59 H59          6.3833  -7.1989  -5.4930 H              1 <1>                0.0000
     60 H60          6.3127  -7.0439  -7.2648 H              1 <1>                0.0000
     61 H61          6.8781  -8.5614  -6.5261 H              1 <1>                0.0000
     62 H62          8.9798  -8.2627  -7.8223 H              1 <1>                0.0000
     63 H63          7.2887  -4.9953  -1.8334 H              1 <1>                0.0000
     64 H64          4.3972  -2.8558  -4.9028 H              1 <1>                0.0000
     65 H65          2.5172  -1.6287  -3.8957 H              1 <1>                0.0000
     66 H66          3.8722  -2.7535   0.0014 H              1 <1>                0.0000
     67 H67          5.7488  -3.9847  -1.0072 H              1 <1>                0.0000
     68 H68          0.7187  -1.7997  -2.9256 H              1 <1>                0.0000
     69 H69          0.5827  -2.9396  -1.5648 H              1 <1>                0.0000
     70 H70         -0.2871  -0.0133  -1.5471 H              1 <1>                0.0000
     71 H71         -1.3687  -1.4257  -1.6179 H              1 <1>                0.0000
     72 H72          1.0454   0.3707   0.4702 H              1 <1>                0.0000
     73 H73          0.9094  -0.7693   1.8309 H              1 <1>                0.0000
     74 H74          1.9153  -2.5557   0.4525 H              1 <1>                0.0000
     75 H75          2.9968  -1.1433   0.5233 H              1 <1>                0.0000
     76 H76         -2.2501   0.1773  -1.0956 H              1 <1>                0.0000
     77 H77         -4.1293   1.4049  -0.0863 H              1 <1>                0.0000
     78 H78         -4.7885   0.5725   4.2602 H              1 <1>                0.0000
     79 H79         -3.7906   2.0448   4.3287 H              1 <1>                0.0000
     80 H80         -6.8142   2.0191   3.8685 H              1 <1>                0.0000
     81 H81         -6.6264   1.4930   6.2061 H              1 <1>                0.0000
     82 H82         -5.0859   2.4022   6.3750 H              1 <1>                0.0000
     83 H83         -7.9280   3.5089   6.0057 H              1 <1>                0.0000
     84 H84         -6.6501   4.0710   7.1349 H              1 <1>                0.0000
     85 H85         -5.6380   6.0571   6.5016 H              1 <1>                0.0000
     86 H86         -4.3784   4.9231   5.9578 H              1 <1>                0.0000
     87 H87         -5.0896   8.3940   5.6189 H              1 <1>                0.0000
     88 H88         -3.6509   7.4811   1.7789 H              1 <1>                0.0000
     89 H89         -7.1690   4.7052   2.4904 H              1 <1>                0.0000
     90 H90         -8.9949   6.0664   1.5573 H              1 <1>                0.0000
     91 H91         -9.7335   7.7257   5.4202 H              1 <1>                0.0000
     92 H92         -2.7645   0.2972   3.8083 H              1 <1>                0.0000
     93 H93         -0.8876  -0.9359   2.8014 H              1 <1>                0.0000
@<TRIPOS>BOND
    1    1    2 1     
    2    1   52 1     
    3    1   53 1     
    4    1   54 1     
    5    2    3 1     
    6    2   55 1     
    7    2   56 1     
    8    3    4 1     
    9    3    7 1     
   10    3   57 1     
   11    4    5 1     
   12    4    6 1     
   13    4   58 1     
   14    5   59 1     
   15    5   60 1     
   16    5   61 1     
   17    6   62 1     
   18    7   50 am    
   19    7    8 1     
   20    8    9 2     
   21    9   10 1     
   22    9   63 1     
   23   10   11 1     
   24   10   50 am    
   25   11   16 ar    
   26   11   12 ar    
   27   12   13 ar    
   28   12   64 1     
   29   13   14 ar    
   30   13   65 1     
   31   14   15 ar    
   32   14   17 1     
   33   15   16 ar    
   34   15   66 1     
   35   16   67 1     
   36   17   22 1     
   37   17   18 1     
   38   18   19 1     
   39   18   68 1     
   40   18   69 1     
   41   19   20 1     
   42   19   70 1     
   43   19   71 1     
   44   20   21 1     
   45   20   23 1     
   46   21   22 1     
   47   21   72 1     
   48   21   73 1     
   49   22   74 1     
   50   22   75 1     
   51   23   49 ar    
   52   23   24 ar    
   53   24   25 ar    
   54   24   76 1     
   55   25   26 ar    
   56   25   77 1     
   57   26   27 1     
   58   26   48 ar    
   59   27   28 1     
   60   28   29 1     
   61   28   78 1     
   62   28   79 1     
   63   29   39 1     
   64   29   30 1     
   65   29   80 1     
   66   30   31 1     
   67   30   81 1     
   68   30   82 1     
   69   31   32 1     
   70   31   83 1     
   71   31   84 1     
   72   32   33 1     
   73   32   39 1     
   74   32   40 1     
   75   33   34 1     
   76   33   85 1     
   77   33   86 1     
   78   34   38 1     
   79   34   35 1     
   80   35   36 2     
   81   35   87 1     
   82   36   37 1     
   83   37   38 2     
   84   37   88 1     
   85   40   46 ar    
   86   40   41 ar    
   87   41   42 ar    
   88   41   89 1     
   89   42   43 ar    
   90   42   90 1     
   91   43   44 1     
   92   43   45 ar    
   93   45   46 ar    
   94   45   91 1     
   95   46   47 1     
   96   48   49 ar    
   97   48   92 1     
   98   49   93 1     
   99   50   51 2     
@<TRIPOS>SUBSTRUCTURE
      1 ****           1
@<TRIPOS>SET
DONOR_HYDROGENS      STATIC     ATOMS    <user>   **** ""
1 62
ATOM$RED        STATIC     ATOMS    COLORGROUP SYSTEM
1 62
