#       Name:                PP9
#       Creating user name   gbret
#       Creation time:       Fri Sep  9 14:43:27 2016


#       File generated by GOLD software.
#

@<TRIPOS>MOLECULE
PP9
    74    78     1
SMALL
NO_CHARGES


@<TRIPOS>ATOM
      1 C1          -1.3060   5.1962   0.0359 C.3            1 <1>                0.0000
      2 C2          -1.2839   3.6894   0.0220 C.2            1 <1>                0.0000
      3 C3          -2.3551   2.8656   0.0173 C.2            1 <1>                0.0000
      4 C4          -3.8058   3.2736   0.0245 C.3            1 <1>                0.0000
      5 C5          -4.3343   3.3035  -1.4110 C.3            1 <1>                0.0000
      6 C6          -5.7850   3.7115  -1.4038 C.2            1 <1>                0.0000
      7 O7          -6.3444   3.9557  -0.3483 O.co2          1 <1>                0.0000
      8 O8          -6.3994   3.7973  -2.4534 O.co2          1 <1>                0.0000
      9 C9          -1.8280   1.4941   0.0032 C.2            1 <1>                0.0000
     10 C10         -2.6274   0.3491  -0.0062 C.2            1 <1>                0.0000
     11 C11         -2.1319  -0.9434  -0.0150 C.2            1 <1>                0.0000
     12 N12         -0.8144  -1.3455  -0.0149 N.pl3          1 <1>                0.0000
     13 H13         -0.0411  -0.7599  -0.0096 H              1 <1>                0.0000
     14 C14         -0.7845  -2.7225  -0.0229 C.2            1 <1>                0.0000
     15 C15          0.3274  -3.5477  -0.0235 C.2            1 <1>                0.0000
     16 C16          1.6436  -3.0764  -0.0162 C.2            1 <1>                0.0000
     17 N17          2.0396  -1.8029  -0.0110 N.2            1 <1>                0.0000
     18 C18          3.3715  -1.7328  -0.0072 C.2            1 <1>                0.0000
     19 C19          4.1738  -0.5957  -0.0028 C.2            1 <1>                0.0000
     20 C20          3.6866   0.7040  -0.0004 C.2            1 <1>                0.0000
     21 N21          2.3714   1.1113  -0.0002 N.pl3          1 <1>                0.0000
     22 H22          1.5987   0.5249  -0.0030 H              1 <1>                0.0000
     23 C23          2.3331   2.4872   0.0052 C.2            1 <1>                0.0000
     24 C24          1.2203   3.3055   0.0096 C.2            1 <1>                0.0000
     25 C25         -0.0941   2.8287   0.0045 C.2            1 <1>                0.0000
     26 N26         -0.4957   1.5569   0.0013 N.2            1 <1>                0.0000
     27 C27          3.6742   2.9567   0.0060 C.2            1 <1>                0.0000
     28 C28          4.1053   4.3665   0.0094 C.2            1 <1>                0.0000
     29 C29          3.5923   5.2202  -0.8701 C.2            1 <1>                0.0000
     30 C30          4.5018   1.8463   0.0029 C.2            1 <1>                0.0000
     31 C31          6.0088   1.8619   0.0037 C.3            1 <1>                0.0000
     32 C32          3.8839  -3.1227  -0.0075 C.2            1 <1>                0.0000
     33 C33          5.2943  -3.5491  -0.0027 C.2            1 <1>                0.0000
     34 C34          5.7366  -4.3719   0.9428 C.2            1 <1>                0.0000
     35 C35          2.7810  -3.9274  -0.0131 C.2            1 <1>                0.0000
     36 C36          2.7719  -5.4344  -0.0156 C.3            1 <1>                0.0000
     37 C37         -2.1158  -3.1834  -0.0304 C.2            1 <1>                0.0000
     38 C38         -2.5534  -4.6254  -0.0417 C.3            1 <1>                0.0000
     39 C39         -2.9361  -2.1005  -0.0256 C.2            1 <1>                0.0000
     40 C40         -4.4428  -2.1313  -0.0302 C.3            1 <1>                0.0000
     41 C41         -4.9569  -2.1513   1.4107 C.3            1 <1>                0.0000
     42 C42         -6.4636  -2.1821   1.4062 C.2            1 <1>                0.0000
     43 O43         -7.0700  -2.1875   0.3485 O.co2          1 <1>                0.0000
     44 O44         -7.0762  -2.2015   2.4602 O.co2          1 <1>                0.0000
     45 H45         -0.2838   5.5746   0.0315 H              1 <1>                0.0000
     46 H46         -1.8319   5.5600  -0.8468 H              1 <1>                0.0000
     47 H47         -1.8183   5.5438   0.9330 H              1 <1>                0.0000
     48 H48         -4.3820   2.5563   0.6090 H              1 <1>                0.0000
     49 H49         -3.9023   4.2646   0.4679 H              1 <1>                0.0000
     50 H50         -3.7581   4.0207  -1.9955 H              1 <1>                0.0000
     51 H51         -4.2378   2.3124  -1.8544 H              1 <1>                0.0000
     52 H52         -3.6994   0.4802  -0.0062 H              1 <1>                0.0000
     53 H53          0.1689  -4.6159  -0.0295 H              1 <1>                0.0000
     54 H54          5.2450  -0.7335  -0.0008 H              1 <1>                0.0000
     55 H55          1.3742   4.3744   0.0137 H              1 <1>                0.0000
     56 H56          4.8380   4.7053   0.7268 H              1 <1>                0.0000
     57 H57          3.9081   6.2530  -0.8676 H              1 <1>                0.0000
     58 H58          2.8595   4.8814  -1.5875 H              1 <1>                0.0000
     59 H59          6.3715   1.8624   1.0316 H              1 <1>                0.0000
     60 H60          6.3815   0.9774  -0.5127 H              1 <1>                0.0000
     61 H61          6.3631   2.7572  -0.5071 H              1 <1>                0.0000
     62 H62          5.9686  -3.1931  -0.7675 H              1 <1>                0.0000
     63 H63          5.0465  -4.7907   1.6603 H              1 <1>                0.0000
     64 H64          6.7861  -4.6216   0.9937 H              1 <1>                0.0000
     65 H65          2.7658  -5.7994   1.0114 H              1 <1>                0.0000
     66 H66          1.8818  -5.7915  -0.5335 H              1 <1>                0.0000
     67 H67          3.6617  -5.8022  -0.5266 H              1 <1>                0.0000
     68 H68         -2.6618  -4.9803   0.9831 H              1 <1>                0.0000
     69 H69         -3.5091  -4.7111  -0.5589 H              1 <1>                0.0000
     70 H70         -1.8058  -5.2279  -0.5577 H              1 <1>                0.0000
     71 H71         -4.8228  -1.2455  -0.5392 H              1 <1>                0.0000
     72 H72         -4.7864  -3.0250  -0.5510 H              1 <1>                0.0000
     73 H73         -4.5770  -3.0371   1.9198 H              1 <1>                0.0000
     74 H74         -4.6134  -1.2575   1.9315 H              1 <1>                0.0000
@<TRIPOS>BOND
    1    1    2 1     
    2    1   45 1     
    3    1   46 1     
    4    1   47 1     
    5    2   25 1     
    6    2    3 2     
    7    3    4 1     
    8    3    9 1     
    9    4    5 1     
   10    4   48 1     
   11    4   49 1     
   12    5    6 1     
   13    5   50 1     
   14    5   51 1     
   15    6    7 ar    
   16    6    8 ar    
   17    9   26 2     
   18    9   10 1     
   19   10   11 2     
   20   10   52 1     
   21   11   39 1     
   22   11   12 1     
   23   12   13 1     
   24   12   14 1     
   25   14   15 2     
   26   14   37 1     
   27   15   16 1     
   28   15   53 1     
   29   16   35 1     
   30   16   17 2     
   31   17   18 1     
   32   18   19 2     
   33   18   32 1     
   34   19   20 1     
   35   19   54 1     
   36   20   30 2     
   37   20   21 1     
   38   21   22 1     
   39   21   23 1     
   40   23   24 1     
   41   23   27 2     
   42   24   25 2     
   43   24   55 1     
   44   25   26 1     
   45   27   28 1     
   46   27   30 1     
   47   28   29 2     
   48   28   56 1     
   49   29   57 1     
   50   29   58 1     
   51   30   31 1     
   52   31   59 1     
   53   31   60 1     
   54   31   61 1     
   55   32   33 1     
   56   32   35 2     
   57   33   34 2     
   58   33   62 1     
   59   34   63 1     
   60   34   64 1     
   61   35   36 1     
   62   36   65 1     
   63   36   66 1     
   64   36   67 1     
   65   37   38 1     
   66   37   39 2     
   67   38   68 1     
   68   38   69 1     
   69   38   70 1     
   70   39   40 1     
   71   40   41 1     
   72   40   71 1     
   73   40   72 1     
   74   41   42 1     
   75   41   73 1     
   76   41   74 1     
   77   42   43 ar    
   78   42   44 ar    
@<TRIPOS>SUBSTRUCTURE
      1 ****           1
@<TRIPOS>SET
DONOR_HYDROGENS      STATIC     ATOMS    <user>   **** ""
2 13 22
ATOM$RED        STATIC     ATOMS    COLORGROUP SYSTEM
2 13 22
