#       Name:                PPE
#       Creating user name   gbret
#       Creation time:       Fri Sep  9 14:43:40 2016


#       File generated by GOLD software.
#

@<TRIPOS>MOLECULE
PPE
    41    41     1
SMALL
NO_CHARGES


@<TRIPOS>ATOM
      1 C1          -1.1258   4.6280  -1.6951 C.3            1 <1>                0.0000
      2 C2          -1.1053   3.1211  -1.7034 C.ar           1 <1>                0.0000
      3 N3          -1.1019   2.4751  -2.8526 N.ar           1 <1>                0.0000
      4 C4          -1.0839   1.1579  -2.9087 C.ar           1 <1>                0.0000
      5 C5          -1.0681   0.3985  -1.7535 C.ar           1 <1>                0.0000
      6 C6          -1.0475  -1.1064  -1.8307 C.3            1 <1>                0.0000
      7 O7          -1.0480  -1.5131  -3.2006 O.3            1 <1>                0.0000
      8 P8          -1.0286  -3.0570  -3.6569 P.3            1 <1>                0.0000
      9 O9          -2.3557  -3.7532  -3.2002 O.co2          1 <1>                0.0000
     10 O10         -0.9057  -3.1391  -5.2166 O.co2          1 <1>                0.0000
     11 O11          0.1945  -3.7810  -2.9978 O.co2          1 <1>                0.0000
     12 C12         -1.0710   1.0372  -0.5242 C.ar           1 <1>                0.0000
     13 C13         -1.0542   0.2448   0.7575 C.3            1 <1>                0.0000
     14 N14          0.3361   0.0061   1.1674 N.4            1 <1>                0.0000
     15 H15          0.8155  -0.5112   0.4458 H              1 <1>                0.0000
     16 H16          0.8005   0.8901   1.3124 H              1 <1>                0.0000
     17 C17          0.3526  -0.7664   2.4168 C.3            1 <1>                0.0000
     18 C18          1.7963  -1.1219   2.7777 C.3            1 <1>                0.0000
     19 C19          2.3716  -2.0596   1.7144 C.3            1 <1>                0.0000
     20 C20          3.7936  -2.4098   2.0698 C.2            1 <1>                0.0000
     21 O21          4.3000  -1.9518   3.0799 O.co2          1 <1>                0.0000
     22 O22          4.4377  -3.1511   1.3472 O.co2          1 <1>                0.0000
     23 C23         -0.2539   0.0564   3.5242 C.2            1 <1>                0.0000
     24 O24         -0.6620   1.1820   3.2939 O.co2          1 <1>                0.0000
     25 O25         -0.3365  -0.4035   4.6503 O.co2          1 <1>                0.0000
     26 C26         -1.0845   2.4284  -0.5019 C.ar           1 <1>                0.0000
     27 O27         -1.0878   3.0988   0.6804 O.3            1 <1>                0.0000
     28 H28         -0.1032   5.0053  -1.7028 H              1 <1>                0.0000
     29 H29         -1.6529   4.9891  -2.5782 H              1 <1>                0.0000
     30 H30         -1.6360   4.9795  -0.7983 H              1 <1>                0.0000
     31 H31         -1.0817   0.6656  -3.8700 H              1 <1>                0.0000
     32 H32         -0.1500  -1.4831  -1.3401 H              1 <1>                0.0000
     33 H33         -1.9298  -1.5079  -1.3322 H              1 <1>                0.0000
     34 H34         -1.5720   0.8036   1.5370 H              1 <1>                0.0000
     35 H35         -1.5558  -0.7102   0.6009 H              1 <1>                0.0000
     36 H36         -0.2251  -1.6814   2.2859 H              1 <1>                0.0000
     37 H37          2.3945  -0.2118   2.8215 H              1 <1>                0.0000
     38 H38          1.8167  -1.6172   3.7484 H              1 <1>                0.0000
     39 H39          1.7734  -2.9697   1.6705 H              1 <1>                0.0000
     40 H40          2.3512  -1.5643   0.7437 H              1 <1>                0.0000
     41 H41         -0.2054   3.3014   1.0201 H              1 <1>                0.0000
@<TRIPOS>BOND
    1    1    2 1     
    2    1   28 1     
    3    1   29 1     
    4    1   30 1     
    5    2   26 ar    
    6    2    3 ar    
    7    3    4 ar    
    8    4    5 ar    
    9    4   31 1     
   10    5    6 1     
   11    5   12 ar    
   12    6    7 1     
   13    6   32 1     
   14    6   33 1     
   15    7    8 1     
   16    8    9 ar    
   17    8   10 ar    
   18    8   11 ar    
   19   12   13 1     
   20   12   26 ar    
   21   13   14 1     
   22   13   34 1     
   23   13   35 1     
   24   14   15 1     
   25   14   16 1     
   26   14   17 1     
   27   17   18 1     
   28   17   23 1     
   29   17   36 1     
   30   18   19 1     
   31   18   37 1     
   32   18   38 1     
   33   19   20 1     
   34   19   39 1     
   35   19   40 1     
   36   20   21 ar    
   37   20   22 ar    
   38   23   24 ar    
   39   23   25 ar    
   40   26   27 1     
   41   27   41 1     
@<TRIPOS>SUBSTRUCTURE
      1 ****           1
@<TRIPOS>SET
DONOR_HYDROGENS      STATIC     ATOMS    <user>   **** ""
3 15 16 41
ATOM$RED        STATIC     ATOMS    COLORGROUP SYSTEM
3 15 16 41
