#       Name:                PSY
#       Creating user name   gbret
#       Creation time:       Fri Sep  9 14:50:29 2016


#       File generated by GOLD software.
#

@<TRIPOS>MOLECULE
PSY
    20    20     1
SMALL
NO_CHARGES


@<TRIPOS>ATOM
      1 C1          -0.2889   3.5211  -0.7884 C.2            1 <1>                0.0000
      2 C2          -0.2711   2.2112  -0.7956 C.2            1 <1>                0.0000
      3 S3           1.2665   1.3511  -0.8149 S.o2           1 <1>                0.0000
      4 O4           1.1664   0.3730  -1.8408 O.2            1 <1>                0.0000
      5 O5           2.2823   2.3443  -0.7845 O.2            1 <1>                0.0000
      6 O6           1.3724   0.5879   0.4977 O.3            1 <1>                0.0000
      7 C7           0.5887  -0.5208   0.5571 C.ar           1 <1>                0.0000
      8 C8          -0.7098  -0.4290   1.0368 C.ar           1 <1>                0.0000
      9 C9          -1.5046  -1.5574   1.0957 C.ar           1 <1>                0.0000
     10 C10         -1.0067  -2.7777   0.6777 C.ar           1 <1>                0.0000
     11 C11          0.2873  -2.8719   0.1997 C.ar           1 <1>                0.0000
     12 C12          1.0840  -1.7453   0.1329 C.ar           1 <1>                0.0000
     13 H13          0.6390   4.0738  -0.7943 H              1 <1>                0.0000
     14 H14         -1.2314   4.0483  -0.7810 H              1 <1>                0.0000
     15 H15         -1.1990   1.6586  -0.7897 H              1 <1>                0.0000
     16 H16         -1.0989   0.5238   1.3641 H              1 <1>                0.0000
     17 H17         -2.5155  -1.4864   1.4691 H              1 <1>                0.0000
     18 H18         -1.6295  -3.6588   0.7249 H              1 <1>                0.0000
     19 H19          0.6740  -3.8263  -0.1260 H              1 <1>                0.0000
     20 H20          2.0946  -1.8195  -0.2406 H              1 <1>                0.0000
@<TRIPOS>BOND
    1    1    2 2     
    2    1   13 1     
    3    1   14 1     
    4    2    3 1     
    5    2   15 1     
    6    3    4 2     
    7    3    5 2     
    8    3    6 1     
    9    6    7 1     
   10    7   12 ar    
   11    7    8 ar    
   12    8    9 ar    
   13    8   16 1     
   14    9   10 ar    
   15    9   17 1     
   16   10   11 ar    
   17   10   18 1     
   18   11   12 ar    
   19   11   19 1     
   20   12   20 1     
@<TRIPOS>SUBSTRUCTURE
      1 ****           1
