#       Name:                PTX
#       Creating user name   gbret
#       Creation time:       Fri Sep  9 14:52:12 2016


#       File generated by GOLD software.
#

@<TRIPOS>MOLECULE
PTX
    27    27     1
SMALL
NO_CHARGES


@<TRIPOS>ATOM
      1 C1          -0.6012   3.5812  -1.7645 C.3            1 <1>                0.0000
      2 O2          -0.7585   2.1649  -1.6579 O.3            1 <1>                0.0000
      3 N3          -0.3242   1.6286  -0.4214 N.2            1 <1>                0.0000
      4 C4          -0.4144   0.3481  -0.1991 C.2            1 <1>                0.0000
      5 C5           0.1743  -0.2338   1.0300 C.2            1 <1>                0.0000
      6 O6           0.0901  -1.4282   1.2373 O.2            1 <1>                0.0000
      7 N7           0.8030   0.5616   1.9179 N.am           1 <1>                0.0000
      8 C8           1.3850  -0.0137   3.1331 C.3            1 <1>                0.0000
      9 P9           3.1521  -0.3638   2.8535 P.3            1 <1>                0.0000
     10 O10          3.9209   0.9816   2.6226 O.co2          1 <1>                0.0000
     11 O11          3.7441  -1.0952   4.1062 O.co2          1 <1>                0.0000
     12 O12          3.3099  -1.2787   1.5916 O.co2          1 <1>                0.0000
     13 C13         -1.1043  -0.5247  -1.1733 C.2            1 <1>                0.0000
     14 C14         -1.7529  -0.0356  -2.2484 C.2            1 <1>                0.0000
     15 S15         -2.4322  -1.3901  -3.1474 S.3            1 <1>                0.0000
     16 C16         -1.7654  -2.5133  -1.9668 C.2            1 <1>                0.0000
     17 N17         -1.8996  -3.8909  -2.0102 N.pl3          1 <1>                0.0000
     18 N18         -1.1245  -1.8527  -1.0541 N.2            1 <1>                0.0000
     19 H19          0.4520   3.8391  -1.6543 H              1 <1>                0.0000
     20 H20         -0.9566   3.9138  -2.7398 H              1 <1>                0.0000
     21 H21         -1.1792   4.0710  -0.9808 H              1 <1>                0.0000
     22 H22          0.8702   1.5150   1.7524 H              1 <1>                0.0000
     23 H23          1.2805   0.6934   3.9560 H              1 <1>                0.0000
     24 H24          0.8660  -0.9395   3.3814 H              1 <1>                0.0000
     25 H25         -1.8417   1.0077  -2.5132 H              1 <1>                0.0000
     26 H26         -2.3936  -4.3075  -2.7336 H              1 <1>                0.0000
     27 H27         -1.4996  -4.4391  -1.3172 H              1 <1>                0.0000
@<TRIPOS>BOND
    1    1    2 1     
    2    1   19 1     
    3    1   20 1     
    4    1   21 1     
    5    2    3 1     
    6    3    4 2     
    7    4    5 1     
    8    4   13 1     
    9    5    6 2     
   10    5    7 am    
   11    7    8 1     
   12    7   22 1     
   13    8    9 1     
   14    8   23 1     
   15    8   24 1     
   16    9   10 ar    
   17    9   11 ar    
   18    9   12 ar    
   19   13   18 1     
   20   13   14 2     
   21   14   15 1     
   22   14   25 1     
   23   15   16 1     
   24   16   17 1     
   25   16   18 2     
   26   17   26 1     
   27   17   27 1     
@<TRIPOS>SUBSTRUCTURE
      1 ****           1
@<TRIPOS>SET
DONOR_HYDROGENS      STATIC     ATOMS    <user>   **** ""
3 22 26 27
ATOM$RED        STATIC     ATOMS    COLORGROUP SYSTEM
3 22 26 27
