#       Name:                PUF
#       Creating user name   gbret
#       Creation time:       Fri Sep  9 14:53:24 2016


#       File generated by GOLD software.
#

@<TRIPOS>MOLECULE
PUF
    23    23     1
SMALL
NO_CHARGES


@<TRIPOS>ATOM
      1 C1          -1.1450   2.4118   0.1803 C.3            1 <1>                0.0000
      2 C2          -1.1242   0.8819   0.1719 C.3            1 <1>                0.0000
      3 O3          -0.3590   0.3957  -0.9523 O.3            1 <1>                0.0000
      4 C4           0.0121  -0.9559  -0.6039 C.3            1 <1>                0.0000
      5 O5          -1.0912  -1.8419  -0.8039 O.3            1 <1>                0.0000
      6 C6           1.2149  -1.4088  -1.4340 C.3            1 <1>                0.0000
      7 O7           0.8697  -1.3933  -2.8206 O.3            1 <1>                0.0000
      8 C8           0.3838  -0.8895   0.8941 C.3            1 <1>                0.0000
      9 O9           1.7926  -0.7110   1.0529 O.3            1 <1>                0.0000
     10 C10         -0.3810   0.3473   1.4162 C.3            1 <1>                0.0000
     11 O11          0.5323   1.3275   1.9134 O.3            1 <1>                0.0000
     12 H12         -0.1224   2.7891   0.1726 H              1 <1>                0.0000
     13 H13         -1.6722   2.7728  -0.7027 H              1 <1>                0.0000
     14 H14         -1.6552   2.7633   1.0771 H              1 <1>                0.0000
     15 H15         -2.1406   0.4896   0.1394 H              1 <1>                0.0000
     16 H16         -1.3993  -1.8859  -1.7194 H              1 <1>                0.0000
     17 H17          2.0517  -0.7323  -1.2602 H              1 <1>                0.0000
     18 H18          1.4982  -2.4199  -1.1414 H              1 <1>                0.0000
     19 H19          1.5868  -1.6697  -3.4075 H              1 <1>                0.0000
     20 H20          0.0534  -1.7912   1.4098 H              1 <1>                0.0000
     21 H21          2.0815  -0.6626   1.9745 H              1 <1>                0.0000
     22 H22         -1.0915   0.0583   2.1906 H              1 <1>                0.0000
     23 H23          0.1056   2.1257   2.2540 H              1 <1>                0.0000
@<TRIPOS>BOND
    1    1    2 1     
    2    1   12 1     
    3    1   13 1     
    4    1   14 1     
    5    2   10 1     
    6    2    3 1     
    7    2   15 1     
    8    3    4 1     
    9    4    5 1     
   10    4    6 1     
   11    4    8 1     
   12    5   16 1     
   13    6    7 1     
   14    6   17 1     
   15    6   18 1     
   16    7   19 1     
   17    8    9 1     
   18    8   10 1     
   19    8   20 1     
   20    9   21 1     
   21   10   11 1     
   22   10   22 1     
   23   11   23 1     
@<TRIPOS>SUBSTRUCTURE
      1 ****           1
@<TRIPOS>SET
DONOR_HYDROGENS      STATIC     ATOMS    <user>   **** ""
4 16 19 21 23
ATOM$RED        STATIC     ATOMS    COLORGROUP SYSTEM
4 16 19 21 23
