#       Name:                PUY
#       Creating user name   gbret
#       Creation time:       Fri Sep  9 14:54:12 2016


#       File generated by GOLD software.
#

@<TRIPOS>MOLECULE
PUY
    64    67     1
SMALL
NO_CHARGES


@<TRIPOS>ATOM
      1 C1           8.6821   4.2316   0.4768 C.3            1 <1>                0.0000
      2 O2           8.7161   2.8233   0.2364 O.3            1 <1>                0.0000
      3 C3           7.5304   2.1608   0.2821 C.ar           1 <1>                0.0000
      4 C4           6.3576   2.8528   0.5470 C.ar           1 <1>                0.0000
      5 C5           5.1535   2.1771   0.5923 C.ar           1 <1>                0.0000
      6 C6           5.1168   0.8122   0.3745 C.ar           1 <1>                0.0000
      7 C7           3.8020   0.0775   0.4250 C.3            1 <1>                0.0000
      8 C8           3.1740   0.0592  -0.9700 C.3            1 <1>                0.0000
      9 N9           4.0221  -0.7239  -1.8786 N.4            1 <1>                0.0000
     10 H10          4.9387  -0.3050  -1.9278 H              1 <1>                0.0000
     11 H11          4.1021  -1.6686  -1.5333 H              1 <1>                0.0000
     12 H12          3.6079  -0.7360  -2.7986 H              1 <1>                0.0000
     13 C13          1.8049  -0.5664  -0.8965 C.2            1 <1>                0.0000
     14 O14          1.6492  -1.7245  -1.2215 O.2            1 <1>                0.0000
     15 N15          0.7537   0.1610  -0.4696 N.am           1 <1>                0.0000
     16 C16         -0.5772  -0.4472  -0.3981 C.3            1 <1>                0.0000
     17 C17         -0.8086  -1.0813   0.9915 C.3            1 <1>                0.0000
     18 C18          0.5290  -1.4285   1.6480 C.3            1 <1>                0.0000
     19 O19          0.2918  -2.1177   2.8771 O.3            1 <1>                0.0000
     20 O20         -1.4928  -0.0623   1.7527 O.3            1 <1>                0.0000
     21 C21         -2.4381   0.5283   0.8343 C.3            1 <1>                0.0000
     22 C22         -1.6738   0.6360  -0.5038 C.3            1 <1>                0.0000
     23 O23         -1.0865   1.9314  -0.6421 O.3            1 <1>                0.0000
     24 N24         -3.6111  -0.3364   0.6836 N.pl3          1 <1>                0.0000
     25 C25         -3.6840  -1.6596   1.0026 C.2            1 <1>                0.0000
     26 N26         -4.8748  -2.1150   0.7411 N.2            1 <1>                0.0000
     27 C27         -5.6394  -1.1157   0.2391 C.ar           1 <1>                0.0000
     28 C28         -6.9677  -1.0175  -0.2094 C.ar           1 <1>                0.0000
     29 N29         -7.4014   0.1581  -0.6517 N.ar           1 <1>                0.0000
     30 C30         -6.6099   1.2152  -0.6730 C.ar           1 <1>                0.0000
     31 N31         -5.3599   1.1702  -0.2632 N.ar           1 <1>                0.0000
     32 C32         -4.8394   0.0386   0.2009 C.ar           1 <1>                0.0000
     33 N33         -7.8044  -2.1197  -0.1913 N.3            1 <1>                0.0000
     34 C34         -9.1376  -1.7770  -0.7045 C.3            1 <1>                0.0000
     35 C35         -7.2206  -3.2363  -0.9465 C.3            1 <1>                0.0000
     36 C36          6.2842   0.1203   0.1098 C.ar           1 <1>                0.0000
     37 C37          7.4902   0.7922   0.0582 C.ar           1 <1>                0.0000
     38 H38          9.6922   4.6359   0.4111 H              1 <1>                0.0000
     39 H39          8.0491   4.7123  -0.2691 H              1 <1>                0.0000
     40 H40          8.2790   4.4207   1.4717 H              1 <1>                0.0000
     41 H41          6.3859   3.9188   0.7179 H              1 <1>                0.0000
     42 H42          4.2402   2.7153   0.7985 H              1 <1>                0.0000
     43 H43          3.9702  -0.9456   0.7612 H              1 <1>                0.0000
     44 H44          3.1302   0.5822   1.1193 H              1 <1>                0.0000
     45 H45          3.0875   1.0798  -1.3430 H              1 <1>                0.0000
     46 H46          0.8783   1.0871  -0.2097 H              1 <1>                0.0000
     47 H47         -0.6986  -1.1917  -1.1849 H              1 <1>                0.0000
     48 H48         -1.4298  -1.9726   0.9031 H              1 <1>                0.0000
     49 H49          1.1071  -2.0664   0.9794 H              1 <1>                0.0000
     50 H50          1.0849  -0.5122   1.8466 H              1 <1>                0.0000
     51 H51          1.0975  -2.3694   3.3488 H              1 <1>                0.0000
     52 H52         -2.7369   1.5175   1.1814 H              1 <1>                0.0000
     53 H53         -2.3389   0.4258  -1.3415 H              1 <1>                0.0000
     54 H54         -1.7278   2.6550  -0.6528 H              1 <1>                0.0000
     55 H55         -2.8731  -2.2441   1.4118 H              1 <1>                0.0000
     56 H56         -7.0029   2.1515  -1.0408 H              1 <1>                0.0000
     57 H57         -9.0512  -1.4206  -1.7310 H              1 <1>                0.0000
     58 H58         -9.7748  -2.6610  -0.6792 H              1 <1>                0.0000
     59 H59         -9.5758  -0.9953  -0.0841 H              1 <1>                0.0000
     60 H60         -6.2653  -3.5154  -0.5020 H              1 <1>                0.0000
     61 H61         -7.8985  -4.0893  -0.9161 H              1 <1>                0.0000
     62 H62         -7.0648  -2.9327  -1.9817 H              1 <1>                0.0000
     63 H63          6.2529  -0.9458  -0.0604 H              1 <1>                0.0000
     64 H64          8.4018   0.2514  -0.1486 H              1 <1>                0.0000
@<TRIPOS>BOND
    1    1    2 1     
    2    1   38 1     
    3    1   39 1     
    4    1   40 1     
    5    2    3 1     
    6    3   37 ar    
    7    3    4 ar    
    8    4    5 ar    
    9    4   41 1     
   10    5    6 ar    
   11    5   42 1     
   12    6    7 1     
   13    6   36 ar    
   14    7    8 1     
   15    7   43 1     
   16    7   44 1     
   17    8    9 1     
   18    8   13 1     
   19    8   45 1     
   20    9   10 1     
   21    9   11 1     
   22    9   12 1     
   23   13   14 2     
   24   13   15 am    
   25   15   16 1     
   26   15   46 1     
   27   16   22 1     
   28   16   17 1     
   29   16   47 1     
   30   17   18 1     
   31   17   20 1     
   32   17   48 1     
   33   18   19 1     
   34   18   49 1     
   35   18   50 1     
   36   19   51 1     
   37   20   21 1     
   38   21   22 1     
   39   21   24 1     
   40   21   52 1     
   41   22   23 1     
   42   22   53 1     
   43   23   54 1     
   44   24   32 1     
   45   24   25 1     
   46   25   26 2     
   47   25   55 1     
   48   26   27 1     
   49   27   32 ar    
   50   27   28 ar    
   51   28   29 ar    
   52   28   33 1     
   53   29   30 ar    
   54   30   31 ar    
   55   30   56 1     
   56   31   32 ar    
   57   33   34 1     
   58   33   35 1     
   59   34   57 1     
   60   34   58 1     
   61   34   59 1     
   62   35   60 1     
   63   35   61 1     
   64   35   62 1     
   65   36   37 ar    
   66   36   63 1     
   67   37   64 1     
@<TRIPOS>SUBSTRUCTURE
      1 ****           1
@<TRIPOS>SET
DONOR_HYDROGENS      STATIC     ATOMS    <user>   **** ""
6 10 11 12 46 51 54
ATOM$RED        STATIC     ATOMS    COLORGROUP SYSTEM
6 10 11 12 46 51 54
