#       Name:                PVE
#       Creating user name   gbret
#       Creation time:       Fri Sep  9 14:54:54 2016


#       File generated by GOLD software.
#

@<TRIPOS>MOLECULE
PVE
    42    44     1
SMALL
NO_CHARGES


@<TRIPOS>ATOM
      1 O1           0.3999   5.4203   1.6196 O.3            1 <1>                0.0000
      2 C2           0.2312   4.0743   1.5335 C.ar           1 <1>                0.0000
      3 C3           0.5892   3.4229   0.3881 C.ar           1 <1>                0.0000
      4 C4           0.4172   2.0312   0.2951 C.ar           1 <1>                0.0000
      5 N5           0.7748   1.3840  -0.8342 N.pl3          1 <1>                0.0000
      6 C6           1.3679   2.2129  -1.8907 C.3            1 <1>                0.0000
      7 C7           1.3576   1.4678  -3.2249 C.3            1 <1>                0.0000
      8 C8           1.8817   0.0483  -2.9649 C.3            1 <1>                0.0000
      9 N9           0.9235  -0.6326  -2.0932 N.3            1 <1>                0.0000
     10 C10          0.6049   0.0884  -0.9494 C.ar           1 <1>                0.0000
     11 C11          0.0691  -0.6685   0.1242 C.ar           1 <1>                0.0000
     12 N12         -0.0849  -2.0537  -0.0158 N.am           1 <1>                0.0000
     13 C13         -0.9530  -2.7182   0.7724 C.2            1 <1>                0.0000
     14 O14         -1.6743  -2.1059   1.5314 O.2            1 <1>                0.0000
     15 C15         -1.0276  -4.2221   0.7107 C.3            1 <1>                0.0000
     16 C16         -2.0845  -4.7213   1.6980 C.3            1 <1>                0.0000
     17 C17         -2.1590  -6.2251   1.6364 C.2            1 <1>                0.0000
     18 O18         -1.4341  -6.8407   0.8734 O.co2          1 <1>                0.0000
     19 O19         -2.9444  -6.8263   2.3494 O.co2          1 <1>                0.0000
     20 C20         -0.2972  -0.0655   1.2901 C.ar           1 <1>                0.0000
     21 C21         -0.1270   1.3288   1.3933 C.ar           1 <1>                0.0000
     22 C22         -0.4866   2.0222   2.5601 C.ar           1 <1>                0.0000
     23 C23         -0.3025   3.3736   2.6240 C.ar           1 <1>                0.0000
     24 O24         -0.6496   4.0478   3.7528 O.co2          1 <1>                0.0000
     25 C25          0.5754   3.4875  -2.0267 C.2            1 <1>                0.0000
     26 O26          1.1440   4.5340  -2.2874 O.co2          1 <1>                0.0000
     27 O27         -0.6344   3.4721  -1.8761 O.co2          1 <1>                0.0000
     28 H28          1.2631   5.6872   1.9643 H              1 <1>                0.0000
     29 H29          1.0024   3.9750  -0.4431 H              1 <1>                0.0000
     30 H30          2.3961   2.4562  -1.6225 H              1 <1>                0.0000
     31 H31          0.3408   1.4212  -3.6150 H              1 <1>                0.0000
     32 H32          2.0057   1.9768  -3.9383 H              1 <1>                0.0000
     33 H33          1.9699  -0.4908  -3.9081 H              1 <1>                0.0000
     34 H34          2.8545   0.0983  -2.4756 H              1 <1>                0.0000
     35 H35          0.0910  -0.8898  -2.6021 H              1 <1>                0.0000
     36 H36          0.4332  -2.5346  -0.6800 H              1 <1>                0.0000
     37 H37         -1.2986  -4.5314  -0.2987 H              1 <1>                0.0000
     38 H38         -0.0576  -4.6450   0.9722 H              1 <1>                0.0000
     39 H39         -1.8135  -4.4120   2.7075 H              1 <1>                0.0000
     40 H40         -3.0545  -4.2984   1.4365 H              1 <1>                0.0000
     41 H41         -0.7055  -0.6388   2.1092 H              1 <1>                0.0000
     42 H42         -0.9027   1.4897   3.4026 H              1 <1>                0.0000
@<TRIPOS>BOND
    1    1    2 1     
    2    1   28 1     
    3    2   23 ar    
    4    2    3 ar    
    5    3    4 ar    
    6    3   29 1     
    7    4   21 ar    
    8    4    5 ar    
    9    5   10 ar    
   10    5    6 1     
   11    6    7 1     
   12    6   25 1     
   13    6   30 1     
   14    7    8 1     
   15    7   31 1     
   16    7   32 1     
   17    8    9 1     
   18    8   33 1     
   19    8   34 1     
   20    9   10 1     
   21    9   35 1     
   22   10   11 ar    
   23   11   12 1     
   24   11   20 ar    
   25   12   13 am    
   26   12   36 1     
   27   13   14 2     
   28   13   15 1     
   29   15   16 1     
   30   15   37 1     
   31   15   38 1     
   32   16   17 1     
   33   16   39 1     
   34   16   40 1     
   35   17   18 ar    
   36   17   19 ar    
   37   20   21 ar    
   38   20   41 1     
   39   21   22 ar    
   40   22   23 ar    
   41   22   42 1     
   42   23   24 ar    
   43   25   26 ar    
   44   25   27 ar    
@<TRIPOS>SUBSTRUCTURE
      1 ****           1
@<TRIPOS>SET
DONOR_HYDROGENS      STATIC     ATOMS    <user>   **** ""
3 28 35 36
ATOM$RED        STATIC     ATOMS    COLORGROUP SYSTEM
3 28 35 36
