#       Name:                PWK
#       Creating user name   gbret
#       Creation time:       Fri Sep  9 14:55:52 2016


#       File generated by GOLD software.
#

@<TRIPOS>MOLECULE
PWK
    50    51     1
SMALL
NO_CHARGES


@<TRIPOS>ATOM
      1 C1          -1.5645  -0.1466  -5.5357 C.3            1 <1>                0.0000
      2 O2          -1.5451  -1.5755  -5.5436 O.3            1 <1>                0.0000
      3 C3          -0.9210  -2.1902  -4.5034 C.ar           1 <1>                0.0000
      4 C4          -0.3451  -1.4347  -3.4946 C.ar           1 <1>                0.0000
      5 C5           0.2886  -2.0611  -2.4377 C.ar           1 <1>                0.0000
      6 C6           0.9143  -1.2378  -1.3415 C.3            1 <1>                0.0000
      7 C7          -0.1178  -0.9858  -0.2405 C.3            1 <1>                0.0000
      8 C8          -0.4967  -2.3143   0.4171 C.3            1 <1>                0.0000
      9 C9           0.4774  -0.0475   0.8113 C.3            1 <1>                0.0000
     10 C10          0.8563   1.2810   0.1537 C.3            1 <1>                0.0000
     11 C11         -0.5547   0.2045   1.9123 C.3            1 <1>                0.0000
     12 C12          0.0710   1.0278   3.0085 C.ar           1 <1>                0.0000
     13 C13          0.7096   0.4014   4.0626 C.ar           1 <1>                0.0000
     14 C14          1.2848   1.1521   5.0708 C.ar           1 <1>                0.0000
     15 C15          1.2224   2.5357   5.0262 C.ar           1 <1>                0.0000
     16 O16          1.7881   3.2757   6.0170 O.3            1 <1>                0.0000
     17 C17          0.5800   3.1662   3.9650 C.ar           1 <1>                0.0000
     18 O18          0.5161   4.5238   3.9166 O.3            1 <1>                0.0000
     19 C19         -0.1590   5.1020   2.7978 C.3            1 <1>                0.0000
     20 C20          0.0100   2.4078   2.9549 C.ar           1 <1>                0.0000
     21 C21          0.3492  -3.4413  -2.3840 C.ar           1 <1>                0.0000
     22 C22         -0.2233  -4.2010  -3.3871 C.ar           1 <1>                0.0000
     23 C23         -0.8642  -3.5794  -4.4468 C.ar           1 <1>                0.0000
     24 O24         -1.4282  -4.3253  -5.4342 O.3            1 <1>                0.0000
     25 H25         -0.5419   0.2307  -5.5435 H              1 <1>                0.0000
     26 H26         -2.0917   0.2145  -6.4188 H              1 <1>                0.0000
     27 H27         -2.0747   0.2049  -4.6389 H              1 <1>                0.0000
     28 H28         -0.3910  -0.3564  -3.5343 H              1 <1>                0.0000
     29 H29          1.7663  -1.7751  -0.9248 H              1 <1>                0.0000
     30 H30          1.2503  -0.2846  -1.7497 H              1 <1>                0.0000
     31 H31         -1.0071  -0.5283  -0.6740 H              1 <1>                0.0000
     32 H32         -1.2320  -2.1348   1.2014 H              1 <1>                0.0000
     33 H33         -0.9207  -2.9827  -0.3323 H              1 <1>                0.0000
     34 H34          0.3926  -2.7718   0.8505 H              1 <1>                0.0000
     35 H35          1.3667  -0.5051   1.2448 H              1 <1>                0.0000
     36 H36          1.5916   1.1014  -0.6307 H              1 <1>                0.0000
     37 H37         -0.0330   1.7385  -0.2798 H              1 <1>                0.0000
     38 H38          1.2802   1.9494   0.9030 H              1 <1>                0.0000
     39 H39         -1.4067   0.7418   1.4956 H              1 <1>                0.0000
     40 H40         -0.8907  -0.7487   2.3205 H              1 <1>                0.0000
     41 H41          0.7590  -0.6769   4.0986 H              1 <1>                0.0000
     42 H42          1.7825   0.6603   5.8935 H              1 <1>                0.0000
     43 H43          2.7122   3.5096   5.8546 H              1 <1>                0.0000
     44 H44          0.3391   4.7993   1.8767 H              1 <1>                0.0000
     45 H45         -1.1936   4.7593   2.7808 H              1 <1>                0.0000
     46 H46         -0.1375   6.1885   2.8823 H              1 <1>                0.0000
     47 H47         -0.4888   2.8947   2.1300 H              1 <1>                0.0000
     48 H48          0.8451  -3.9270  -1.5566 H              1 <1>                0.0000
     49 H49         -0.1743  -5.2789  -3.3428 H              1 <1>                0.0000
     50 H50         -2.3520  -4.5600  -5.2709 H              1 <1>                0.0000
@<TRIPOS>BOND
    1    1    2 1     
    2    1   25 1     
    3    1   26 1     
    4    1   27 1     
    5    2    3 1     
    6    3   23 ar    
    7    3    4 ar    
    8    4    5 ar    
    9    4   28 1     
   10    5    6 1     
   11    5   21 ar    
   12    6    7 1     
   13    6   29 1     
   14    6   30 1     
   15    7    8 1     
   16    7    9 1     
   17    7   31 1     
   18    8   32 1     
   19    8   33 1     
   20    8   34 1     
   21    9   10 1     
   22    9   11 1     
   23    9   35 1     
   24   10   36 1     
   25   10   37 1     
   26   10   38 1     
   27   11   12 1     
   28   11   39 1     
   29   11   40 1     
   30   12   20 ar    
   31   12   13 ar    
   32   13   14 ar    
   33   13   41 1     
   34   14   15 ar    
   35   14   42 1     
   36   15   16 1     
   37   15   17 ar    
   38   16   43 1     
   39   17   18 1     
   40   17   20 ar    
   41   18   19 1     
   42   19   44 1     
   43   19   45 1     
   44   19   46 1     
   45   20   47 1     
   46   21   22 ar    
   47   21   48 1     
   48   22   23 ar    
   49   22   49 1     
   50   23   24 1     
   51   24   50 1     
@<TRIPOS>SUBSTRUCTURE
      1 ****           1
@<TRIPOS>SET
DONOR_HYDROGENS      STATIC     ATOMS    <user>   **** ""
2 43 50
ATOM$RED        STATIC     ATOMS    COLORGROUP SYSTEM
2 43 50
