#       Name:                PXX
#       Creating user name   gbret
#       Creation time:       Fri Sep  9 14:57:56 2016


#       File generated by GOLD software.
#

@<TRIPOS>MOLECULE
PXX
    29    31     1
SMALL
NO_CHARGES


@<TRIPOS>ATOM
      1 C1           0.2241   4.3453   1.1846 C.3            1 <1>                0.0000
      2 C2           0.2532   2.8386   1.1712 C.2            1 <1>                0.0000
      3 O3           0.7978   2.2346   2.0710 O.2            1 <1>                0.0000
      4 N4          -0.3258   2.1624   0.1593 N.am           1 <1>                0.0000
      5 C5          -0.2171   0.7721   0.0965 C.ar           1 <1>                0.0000
      6 C6          -0.2081   0.0439   1.2419 C.ar           1 <1>                0.0000
      7 C7          -0.1001  -1.3626   1.2163 C.ar           1 <1>                0.0000
      8 C8          -0.0927  -2.1001   2.4145 C.ar           1 <1>                0.0000
      9 C9           0.0136  -3.4615   2.3381 C.ar           1 <1>                0.0000
     10 C10          0.1107  -4.0794   1.0965 C.ar           1 <1>                0.0000
     11 N11          0.1030  -3.3845  -0.0179 N.ar           1 <1>                0.0000
     12 C12          0.0020  -2.0576  -0.0089 C.ar           1 <1>                0.0000
     13 C13         -0.0046  -1.2963  -1.2640 C.ar           1 <1>                0.0000
     14 N14          0.0891  -1.9066  -2.4419 N.ar           1 <1>                0.0000
     15 C15          0.0832  -1.2263  -3.5662 C.ar           1 <1>                0.0000
     16 C16         -0.0209   0.1594  -3.5775 C.ar           1 <1>                0.0000
     17 C17         -0.1203   0.8446  -2.3960 C.ar           1 <1>                0.0000
     18 C18         -0.1198   0.1093  -1.2020 C.ar           1 <1>                0.0000
     19 H19          1.1024   4.7303   0.6666 H              1 <1>                0.0000
     20 H20         -0.6771   4.6957   0.6814 H              1 <1>                0.0000
     21 H21          0.2258   4.6995   2.2154 H              1 <1>                0.0000
     22 H22         -0.8181   2.6418  -0.5254 H              1 <1>                0.0000
     23 H23         -0.2848   0.5515   2.1921 H              1 <1>                0.0000
     24 H24         -0.1686  -1.6036   3.3706 H              1 <1>                0.0000
     25 H25          0.0225  -4.0551   3.2403 H              1 <1>                0.0000
     26 H26          0.1946  -5.1550   1.0473 H              1 <1>                0.0000
     27 H27          0.1615  -1.7567  -4.5037 H              1 <1>                0.0000
     28 H28         -0.0229   0.6945  -4.5156 H              1 <1>                0.0000
     29 H29         -0.2020   1.9215  -2.3844 H              1 <1>                0.0000
@<TRIPOS>BOND
    1    1    2 1     
    2    1   19 1     
    3    1   20 1     
    4    1   21 1     
    5    2    3 2     
    6    2    4 am    
    7    4    5 1     
    8    4   22 1     
    9    5   18 ar    
   10    5    6 ar    
   11    6    7 ar    
   12    6   23 1     
   13    7   12 ar    
   14    7    8 ar    
   15    8    9 ar    
   16    8   24 1     
   17    9   10 ar    
   18    9   25 1     
   19   10   11 ar    
   20   10   26 1     
   21   11   12 ar    
   22   12   13 ar    
   23   13   18 ar    
   24   13   14 ar    
   25   14   15 ar    
   26   15   16 ar    
   27   15   27 1     
   28   16   17 ar    
   29   16   28 1     
   30   17   18 ar    
   31   17   29 1     
@<TRIPOS>SUBSTRUCTURE
      1 ****           1
@<TRIPOS>SET
DONOR_HYDROGENS      STATIC     ATOMS    <user>   **** ""
1 22
ATOM$RED        STATIC     ATOMS    COLORGROUP SYSTEM
1 22
