#       Name:                PY8
#       Creating user name   gbret
#       Creation time:       Fri Sep  9 14:58:36 2016


#       File generated by GOLD software.
#

@<TRIPOS>MOLECULE
PY8
    36    38     1
SMALL
NO_CHARGES


@<TRIPOS>ATOM
      1 Br1         -2.4868  -4.9158   0.1313 Br             1 <1>                0.0000
      2 C2          -2.5125  -3.0250   0.1417 C.ar           1 <1>                0.0000
      3 C3          -3.7104  -2.3358   0.1626 C.ar           1 <1>                0.0000
      4 N4          -3.6839  -1.0116   0.1487 N.ar           1 <1>                0.0000
      5 C5          -2.5382  -0.3391   0.1188 C.ar           1 <1>                0.0000
      6 N6          -2.5914   1.0324   0.0372 N.pl3          1 <1>                0.0000
      7 C7          -1.4911   1.8781   0.0035 C.ar           1 <1>                0.0000
      8 C8          -1.7035   3.2324  -0.2625 C.ar           1 <1>                0.0000
      9 C9          -0.6384   4.1046  -0.3246 C.ar           1 <1>                0.0000
     10 C10          0.6467   3.6345  -0.1255 C.ar           1 <1>                0.0000
     11 C11          0.8667   2.2984   0.1509 C.ar           1 <1>                0.0000
     12 C12         -0.1972   1.4188   0.2118 C.ar           1 <1>                0.0000
     13 S13          2.5104   1.7326   0.4370 S.o2           1 <1>                0.0000
     14 O14          3.3705   2.8174   0.1163 O.2            1 <1>                0.0000
     15 O15          2.5013   1.0966   1.7077 O.2            1 <1>                0.0000
     16 N16          2.8171   0.5401  -0.6859 N.pl3          1 <1>                0.0000
     17 C17          3.0218  -0.8261  -0.1439 C.3            1 <1>                0.0000
     18 C18          1.8769  -1.7162  -0.6463 C.3            1 <1>                0.0000
     19 C19          1.0897  -2.2324   0.5599 C.3            1 <1>                0.0000
     20 N20         -0.0957  -2.9748   0.0961 N.pl3          1 <1>                0.0000
     21 C21         -1.3222  -2.2964   0.1343 C.ar           1 <1>                0.0000
     22 N22         -1.3722  -0.9710   0.1259 N.ar           1 <1>                0.0000
     23 H23         -4.6503  -2.8670   0.1895 H              1 <1>                0.0000
     24 H24         -3.4696   1.4426  -0.0002 H              1 <1>                0.0000
     25 H25         -2.7073   3.5980  -0.4208 H              1 <1>                0.0000
     26 H26         -0.8067   5.1517  -0.5286 H              1 <1>                0.0000
     27 H27          1.4829   4.3152  -0.1858 H              1 <1>                0.0000
     28 H28         -0.0225   0.3740   0.4222 H              1 <1>                0.0000
     29 H29          2.8589   0.7276  -1.6367 H              1 <1>                0.0000
     30 H30          3.9757  -1.2214  -0.4932 H              1 <1>                0.0000
     31 H31          3.0127  -0.7949   0.9456 H              1 <1>                0.0000
     32 H32          1.2180  -1.1349  -1.2913 H              1 <1>                0.0000
     33 H33          2.2866  -2.5590  -1.2032 H              1 <1>                0.0000
     34 H34          1.7235  -2.8934   1.1510 H              1 <1>                0.0000
     35 H35          0.7727  -1.3895   1.1740 H              1 <1>                0.0000
     36 H36         -0.0305  -3.8900  -0.2186 H              1 <1>                0.0000
@<TRIPOS>BOND
    1    1    2 1     
    2    2   21 ar    
    3    2    3 ar    
    4    3    4 ar    
    5    3   23 1     
    6    4    5 ar    
    7    5   22 ar    
    8    5    6 1     
    9    6    7 1     
   10    6   24 1     
   11    7   12 ar    
   12    7    8 ar    
   13    8    9 ar    
   14    8   25 1     
   15    9   10 ar    
   16    9   26 1     
   17   10   11 ar    
   18   10   27 1     
   19   11   12 ar    
   20   11   13 1     
   21   12   28 1     
   22   13   14 2     
   23   13   15 2     
   24   13   16 1     
   25   16   17 1     
   26   16   29 1     
   27   17   18 1     
   28   17   30 1     
   29   17   31 1     
   30   18   19 1     
   31   18   32 1     
   32   18   33 1     
   33   19   20 1     
   34   19   34 1     
   35   19   35 1     
   36   20   21 1     
   37   20   36 1     
   38   21   22 ar    
@<TRIPOS>SUBSTRUCTURE
      1 ****           1
@<TRIPOS>SET
DONOR_HYDROGENS      STATIC     ATOMS    <user>   **** ""
3 24 29 36
ATOM$RED        STATIC     ATOMS    COLORGROUP SYSTEM
3 24 29 36
