#       Name:                PYO
#       Creating user name   gbret
#       Creation time:       Fri Sep  9 14:59:26 2016


#       File generated by GOLD software.
#

@<TRIPOS>MOLECULE
PYO
    31    32     1
SMALL
NO_CHARGES


@<TRIPOS>ATOM
      1 O1           1.1990   2.2765  -1.2893 O.3            1 <1>                0.0000
      2 C2           1.2184   0.8476  -1.2972 C.3            1 <1>                0.0000
      3 C3           1.7711   0.2880   0.0420 C.3            1 <1>                0.0000
      4 O4           2.7865   1.1434   0.5702 O.3            1 <1>                0.0000
      5 C5           0.5183   0.3003   0.9441 C.3            1 <1>                0.0000
      6 O6          -0.6308   0.3130   0.0890 O.3            1 <1>                0.0000
      7 C7          -0.2192   0.2696  -1.2866 C.3            1 <1>                0.0000
      8 C8          -1.1452   1.1332  -2.1455 C.3            1 <1>                0.0000
      9 O9          -2.4526   0.5567  -2.1640 O.3            1 <1>                0.0000
     10 P10         -3.6849   1.2039  -2.9732 P.3            1 <1>                0.0000
     11 O11         -3.3819   1.1589  -4.5096 O.co2          1 <1>                0.0000
     12 O12         -4.9904   0.3910  -2.6743 O.co2          1 <1>                0.0000
     13 O13         -3.8814   2.6916  -2.5230 O.co2          1 <1>                0.0000
     14 N14          0.4992  -0.8996   1.7844 N.am           1 <1>                0.0000
     15 C15          0.6060  -0.7840   3.1339 C.2            1 <1>                0.0000
     16 C16          0.5865  -1.9081   3.8996 C.2            1 <1>                0.0000
     17 C17          0.4570  -3.1528   3.2763 C.2            1 <1>                0.0000
     18 N18          0.3561  -3.2215   1.9643 N.2            1 <1>                0.0000
     19 C19          0.3703  -2.1142   1.2184 C.2            1 <1>                0.0000
     20 O20          0.2750  -2.2051   0.0060 O.2            1 <1>                0.0000
     21 H21          2.0769   2.6818  -1.2955 H              1 <1>                0.0000
     22 H22          1.7875   0.4696  -2.1464 H              1 <1>                0.0000
     23 H23          2.1493  -0.7260  -0.0880 H              1 <1>                0.0000
     24 H24          3.5588   1.2383  -0.0041 H              1 <1>                0.0000
     25 H25          0.5227   1.1920   1.5708 H              1 <1>                0.0000
     26 H26         -0.2162  -0.7586  -1.6483 H              1 <1>                0.0000
     27 H27         -1.1970   2.1380  -1.7264 H              1 <1>                0.0000
     28 H28         -0.7557   1.1832  -3.1623 H              1 <1>                0.0000
     29 H29          0.7055   0.1884   3.5931 H              1 <1>                0.0000
     30 H30          0.6702  -1.8401   4.9742 H              1 <1>                0.0000
     31 H31          0.4400  -4.0558   3.8686 H              1 <1>                0.0000
@<TRIPOS>BOND
    1    1    2 1     
    2    1   21 1     
    3    2    7 1     
    4    2    3 1     
    5    2   22 1     
    6    3    4 1     
    7    3    5 1     
    8    3   23 1     
    9    4   24 1     
   10    5    6 1     
   11    5   14 1     
   12    5   25 1     
   13    6    7 1     
   14    7    8 1     
   15    7   26 1     
   16    8    9 1     
   17    8   27 1     
   18    8   28 1     
   19    9   10 1     
   20   10   11 ar    
   21   10   12 ar    
   22   10   13 ar    
   23   14   19 am    
   24   14   15 1     
   25   15   16 2     
   26   15   29 1     
   27   16   17 1     
   28   16   30 1     
   29   17   18 2     
   30   17   31 1     
   31   18   19 1     
   32   19   20 2     
@<TRIPOS>SUBSTRUCTURE
      1 ****           1
@<TRIPOS>SET
DONOR_HYDROGENS      STATIC     ATOMS    <user>   **** ""
2 21 24
ATOM$RED        STATIC     ATOMS    COLORGROUP SYSTEM
2 21 24
