#       Name:                Q08
#       Creating user name   gbret
#       Creation time:       Fri Sep  9 15:02:09 2016


#       File generated by GOLD software.
#

@<TRIPOS>MOLECULE
Q08
    32    31     1
SMALL
NO_CHARGES


@<TRIPOS>ATOM
      1 C1           0.0947   3.5528  -1.7270 C.3            1 <1>                0.0000
      2 C2          -0.2184   2.0554  -1.7046 C.3            1 <1>                0.0000
      3 C3           0.5759   1.3850  -0.5819 C.3            1 <1>                0.0000
      4 C4           0.1761  -0.0886  -0.4839 C.3            1 <1>                0.0000
      5 C5           1.0351  -0.7807   0.5763 C.3            1 <1>                0.0000
      6 C6           1.0936  -2.2816   0.2852 C.3            1 <1>                0.0000
      7 C7           1.8562  -2.9894   1.4070 C.3            1 <1>                0.0000
      8 C8          -1.2992  -0.1918  -0.0919 C.3            1 <1>                0.0000
      9 N9          -1.6371  -1.5957   0.1781 N.4            1 <1>                0.0000
     10 H10         -1.2005  -1.8870   1.0398 H              1 <1>                0.0000
     11 H11         -2.6383  -1.6910   0.2593 H              1 <1>                0.0000
     12 H12         -1.3046  -2.1733  -0.5795 H              1 <1>                0.0000
     13 P13         -1.6015   0.8046   1.4046 P.3            1 <1>                0.0000
     14 O14         -1.4274   2.3239   1.0643 O.co2          1 <1>                0.0000
     15 O15         -3.0595   0.5479   1.9172 O.co2          1 <1>                0.0000
     16 O16         -0.5772   0.3981   2.5182 O.co2          1 <1>                0.0000
     17 H17          1.1611   3.6984  -1.8994 H              1 <1>                0.0000
     18 H18         -0.4712   4.0304  -2.5269 H              1 <1>                0.0000
     19 H19         -0.1826   3.9964  -0.7708 H              1 <1>                0.0000
     20 H20         -1.2848   1.9097  -1.5322 H              1 <1>                0.0000
     21 H21          0.0589   1.6118  -2.6608 H              1 <1>                0.0000
     22 H22          1.6419   1.4587  -0.7970 H              1 <1>                0.0000
     23 H23          0.3607   1.8835   0.3632 H              1 <1>                0.0000
     24 H24          0.3304  -0.5719  -1.4486 H              1 <1>                0.0000
     25 H25          2.0432  -0.3667   0.5541 H              1 <1>                0.0000
     26 H26          0.5974  -0.6184   1.5613 H              1 <1>                0.0000
     27 H27          0.0807  -2.6801   0.2268 H              1 <1>                0.0000
     28 H28          1.6048  -2.4481  -0.6630 H              1 <1>                0.0000
     29 H29          1.8978  -4.0586   1.1996 H              1 <1>                0.0000
     30 H30          2.8691  -2.5909   1.4654 H              1 <1>                0.0000
     31 H31          1.3450  -2.8228   2.3552 H              1 <1>                0.0000
     32 H32         -1.9188   0.1807  -0.9076 H              1 <1>                0.0000
@<TRIPOS>BOND
    1    1    2 1     
    2    1   17 1     
    3    1   18 1     
    4    1   19 1     
    5    2    3 1     
    6    2   20 1     
    7    2   21 1     
    8    3    4 1     
    9    3   22 1     
   10    3   23 1     
   11    4    5 1     
   12    4    8 1     
   13    4   24 1     
   14    5    6 1     
   15    5   25 1     
   16    5   26 1     
   17    6    7 1     
   18    6   27 1     
   19    6   28 1     
   20    7   29 1     
   21    7   30 1     
   22    7   31 1     
   23    8    9 1     
   24    8   13 1     
   25    8   32 1     
   26    9   10 1     
   27    9   11 1     
   28    9   12 1     
   29   13   14 ar    
   30   13   15 ar    
   31   13   16 ar    
@<TRIPOS>SUBSTRUCTURE
      1 ****           1
@<TRIPOS>SET
DONOR_HYDROGENS      STATIC     ATOMS    <user>   **** ""
3 10 11 12
ATOM$RED        STATIC     ATOMS    COLORGROUP SYSTEM
3 10 11 12
