#       Name:                Q9C
#       Creating user name   gbret
#       Creation time:       Fri Sep  9 15:05:28 2016


#       File generated by GOLD software.
#

@<TRIPOS>MOLECULE
Q9C
    36    35     1
SMALL
NO_CHARGES


@<TRIPOS>ATOM
      1 C1           3.4292   6.1628   0.0003 C.3            1 <1>                0.0000
      2 C2           3.4497   4.6559  -0.0080 C.2            1 <1>                0.0000
      3 O3           4.5081   4.0639  -0.0213 O.2            1 <1>                0.0000
      4 N4           2.2918   3.9662  -0.0006 N.am           1 <1>                0.0000
      5 C5           2.3116   2.5014  -0.0087 C.3            1 <1>                0.0000
      6 C6           0.8763   1.9718   0.0022 C.3            1 <1>                0.0000
      7 C7           0.8970   0.4420  -0.0062 C.3            1 <1>                0.0000
      8 C8          -0.5384  -0.0876   0.0046 C.3            1 <1>                0.0000
      9 N9          -0.5185  -1.5565  -0.0035 N.4            1 <1>                0.0000
     10 H10         -0.0462  -1.8818  -0.8336 H              1 <1>                0.0000
     11 H11         -0.0304  -1.8907   0.8140 H              1 <1>                0.0000
     12 C12         -1.8966  -2.0649   0.0070 C.3            1 <1>                0.0000
     13 C13         -1.8759  -3.5948  -0.0014 C.3            1 <1>                0.0000
     14 C14         -3.3112  -4.1243   0.0094 C.3            1 <1>                0.0000
     15 N15         -3.2913  -5.5932   0.0013 N.4            1 <1>                0.0000
     16 H16         -2.8191  -5.9186  -0.8288 H              1 <1>                0.0000
     17 H17         -2.8033  -5.9274   0.8188 H              1 <1>                0.0000
     18 H18         -4.2379  -5.9424   0.0085 H              1 <1>                0.0000
     19 H19          4.4518   6.5401  -0.0074 H              1 <1>                0.0000
     20 H20          2.9021   6.5239  -0.8828 H              1 <1>                0.0000
     21 H21          2.9190   6.5143   0.8971 H              1 <1>                0.0000
     22 H22          1.4453   4.4397   0.0100 H              1 <1>                0.0000
     23 H23          2.8218   2.1499  -0.9055 H              1 <1>                0.0000
     24 H24          2.8388   2.1403   0.8744 H              1 <1>                0.0000
     25 H25          0.3661   2.3233   0.8990 H              1 <1>                0.0000
     26 H26          0.3491   2.3329  -0.8809 H              1 <1>                0.0000
     27 H27          1.4072   0.0905  -0.9030 H              1 <1>                0.0000
     28 H28          1.4242   0.0809   0.8768 H              1 <1>                0.0000
     29 H29         -1.0486   0.2639   0.9014 H              1 <1>                0.0000
     30 H30         -1.0656   0.2735  -0.8784 H              1 <1>                0.0000
     31 H31         -2.4068  -1.7134   0.9038 H              1 <1>                0.0000
     32 H32         -2.4238  -1.7038  -0.8761 H              1 <1>                0.0000
     33 H33         -1.3657  -3.9463  -0.8982 H              1 <1>                0.0000
     34 H34         -1.3487  -3.9558   0.8816 H              1 <1>                0.0000
     35 H35         -3.8214  -3.7728   0.9062 H              1 <1>                0.0000
     36 H36         -3.8384  -3.7633  -0.8736 H              1 <1>                0.0000
@<TRIPOS>BOND
    1    1    2 1     
    2    1   19 1     
    3    1   20 1     
    4    1   21 1     
    5    2    3 2     
    6    2    4 am    
    7    4    5 1     
    8    4   22 1     
    9    5    6 1     
   10    5   23 1     
   11    5   24 1     
   12    6    7 1     
   13    6   25 1     
   14    6   26 1     
   15    7    8 1     
   16    7   27 1     
   17    7   28 1     
   18    8    9 1     
   19    8   29 1     
   20    8   30 1     
   21    9   10 1     
   22    9   11 1     
   23    9   12 1     
   24   12   13 1     
   25   12   31 1     
   26   12   32 1     
   27   13   14 1     
   28   13   33 1     
   29   13   34 1     
   30   14   15 1     
   31   14   35 1     
   32   14   36 1     
   33   15   16 1     
   34   15   17 1     
   35   15   18 1     
@<TRIPOS>SUBSTRUCTURE
      1 ****           1
@<TRIPOS>SET
DONOR_HYDROGENS      STATIC     ATOMS    <user>   **** ""
6 22 10 11 16 17 18
ATOM$RED        STATIC     ATOMS    COLORGROUP SYSTEM
6 22 10 11 16 17 18
