#       Name:                QAF
#       Creating user name   gbret
#       Creation time:       Fri Sep  9 15:05:43 2016


#       File generated by GOLD software.
#

@<TRIPOS>MOLECULE
QAF
    38    38     1
SMALL
NO_CHARGES


@<TRIPOS>ATOM
      1 C1           4.7092   5.3077   0.4512 C.3            1 <1>                0.0000
      2 C2           4.7300   3.7778   0.4428 C.3            1 <1>                0.0000
      3 C3           3.2946   3.2483   0.4537 C.3            1 <1>                0.0000
      4 C4           3.3153   1.7184   0.4453 C.3            1 <1>                0.0000
      5 C5           1.9344   1.2089   0.4557 C.1            1 <1>                0.0000
      6 C6           0.8330   0.8026   0.4640 C.1            1 <1>                0.0000
      7 C7          -0.5105   0.3069   0.4742 C.ar           1 <1>                0.0000
      8 C8          -1.5952   1.1913   0.4834 C.ar           1 <1>                0.0000
      9 C9          -2.8734   0.6615   0.4926 C.ar           1 <1>                0.0000
     10 C10         -3.0369  -0.7121   0.4923 C.ar           1 <1>                0.0000
     11 N11         -1.9957  -1.5217   0.4835 N.pl3          1 <1>                0.0000
     12 C12         -2.2199  -2.9695   0.4831 C.3            1 <1>                0.0000
     13 C13         -2.3086  -3.4714  -0.9595 C.3            1 <1>                0.0000
     14 P14         -2.4386  -5.2898  -0.9633 P.3            1 <1>                0.0000
     15 O15         -3.7241  -5.7231  -0.1796 O.co2          1 <1>                0.0000
     16 O16         -2.5294  -5.8038  -2.4404 O.co2          1 <1>                0.0000
     17 O17         -1.1740  -5.9052  -0.2730 O.co2          1 <1>                0.0000
     18 P18         -3.7801  -2.7553  -1.7627 P.3            1 <1>                0.0000
     19 O19         -3.6683  -1.1927  -1.7594 O.co2          1 <1>                0.0000
     20 O20         -3.8709  -3.2693  -3.2399 O.co2          1 <1>                0.0000
     21 O21         -5.0656  -3.1886  -0.9790 O.co2          1 <1>                0.0000
     22 C22         -0.7601  -1.0656   0.4692 C.ar           1 <1>                0.0000
     23 H23          5.7318   5.6850   0.4435 H              1 <1>                0.0000
     24 H24          4.1820   5.6687  -0.4318 H              1 <1>                0.0000
     25 H25          4.1990   5.6592   1.3480 H              1 <1>                0.0000
     26 H26          5.2402   3.4263  -0.4540 H              1 <1>                0.0000
     27 H27          5.2572   3.4168   1.3259 H              1 <1>                0.0000
     28 H28          2.7844   3.5998   1.3505 H              1 <1>                0.0000
     29 H29          2.7674   3.6093  -0.4294 H              1 <1>                0.0000
     30 H30          3.8255   1.3669  -0.4515 H              1 <1>                0.0000
     31 H31          3.8425   1.3573   1.3283 H              1 <1>                0.0000
     32 H32         -1.4385   2.2599   0.4838 H              1 <1>                0.0000
     33 H33         -3.7343   1.3136   0.5002 H              1 <1>                0.0000
     34 H34         -4.0335  -1.1284   0.4998 H              1 <1>                0.0000
     35 H35         -1.3922  -3.4654   0.9902 H              1 <1>                0.0000
     36 H36         -3.1512  -3.1931   1.0035 H              1 <1>                0.0000
     37 H37         -1.4141  -3.1700  -1.5047 H              1 <1>                0.0000
     38 H38          0.0669  -1.7601   0.4620 H              1 <1>                0.0000
@<TRIPOS>BOND
    1    1    2 1     
    2    1   23 1     
    3    1   24 1     
    4    1   25 1     
    5    2    3 1     
    6    2   26 1     
    7    2   27 1     
    8    3    4 1     
    9    3   28 1     
   10    3   29 1     
   11    4    5 1     
   12    4   30 1     
   13    4   31 1     
   14    5    6 3     
   15    6    7 1     
   16    7   22 ar    
   17    7    8 ar    
   18    8    9 ar    
   19    8   32 1     
   20    9   10 ar    
   21    9   33 1     
   22   10   11 ar    
   23   10   34 1     
   24   11   12 1     
   25   11   22 ar    
   26   12   13 1     
   27   12   35 1     
   28   12   36 1     
   29   13   14 1     
   30   13   18 1     
   31   13   37 1     
   32   14   15 ar    
   33   14   16 ar    
   34   14   17 ar    
   35   18   19 ar    
   36   18   20 ar    
   37   18   21 ar    
   38   22   38 1     
@<TRIPOS>SUBSTRUCTURE
      1 ****           1
