#       Name:                QD0
#       Creating user name   gbret
#       Creation time:       Fri Sep  9 15:06:42 2016


#       File generated by GOLD software.
#

@<TRIPOS>MOLECULE
QD0
    36    37     1
SMALL
NO_CHARGES


@<TRIPOS>ATOM
      1 C1          -0.4585   3.3239  -3.0997 C.3            1 <1>                0.0000
      2 N2          -0.4386   1.8590  -3.1078 N.am           1 <1>                0.0000
      3 C3           0.1637   1.1877  -2.1063 C.2            1 <1>                0.0000
      4 O4           0.6892   1.7963  -1.1983 O.2            1 <1>                0.0000
      5 C5           0.1841  -0.3191  -2.1145 C.3            1 <1>                0.0000
      6 C6           1.3449  -0.8377  -2.9997 C.3            1 <1>                0.0000
      7 C7           1.5903  -2.2464  -2.3976 C.3            1 <1>                0.0000
      8 O8           2.9390  -2.6632  -2.6197 O.3            1 <1>                0.0000
      9 C9           1.3265  -2.0299  -0.8926 C.3            1 <1>                0.0000
     10 N10          0.4784  -0.8357  -0.7655 N.am           1 <1>                0.0000
     11 C11          0.0428  -0.3012   0.3926 C.2            1 <1>                0.0000
     12 O12         -0.6550   0.6906   0.3781 O.2            1 <1>                0.0000
     13 C13          0.4227  -0.9362   1.7054 C.3            1 <1>                0.0000
     14 C14         -0.1877  -0.1516   2.8381 C.2            1 <1>                0.0000
     15 C15         -1.4002  -0.3571   3.4058 C.2            1 <1>                0.0000
     16 C16         -1.4818   0.6379   4.4069 C.2            1 <1>                0.0000
     17 C17         -2.6293   0.8727   5.3551 C.3            1 <1>                0.0000
     18 N18         -0.3688   1.3106   4.3479 N.2            1 <1>                0.0000
     19 O19          0.3644   0.8835   3.4864 O.3            1 <1>                0.0000
     20 H20          0.5641   3.7012  -3.1075 H              1 <1>                0.0000
     21 H21         -0.9857   3.6850  -3.9828 H              1 <1>                0.0000
     22 H22         -0.9687   3.6754  -2.2029 H              1 <1>                0.0000
     23 H23         -0.8590   1.3723  -3.8339 H              1 <1>                0.0000
     24 H24         -0.7697  -0.7088  -2.4702 H              1 <1>                0.0000
     25 H25          1.0393  -0.9068  -4.0437 H              1 <1>                0.0000
     26 H26          2.2283  -0.2081  -2.8937 H              1 <1>                0.0000
     27 H27          0.8907  -2.9711  -2.8141 H              1 <1>                0.0000
     28 H28          3.1443  -3.5380  -2.2624 H              1 <1>                0.0000
     29 H29          0.8112  -2.8963  -0.4781 H              1 <1>                0.0000
     30 H30          2.2699  -1.8719  -0.3699 H              1 <1>                0.0000
     31 H31          0.0539  -1.9615   1.7334 H              1 <1>                0.0000
     32 H32          1.5079  -0.9375   1.8078 H              1 <1>                0.0000
     33 H33         -2.1347  -1.1073   3.1525 H              1 <1>                0.0000
     34 H34         -2.4793   0.2838   6.2600 H              1 <1>                0.0000
     35 H35         -2.6764   1.9305   5.6136 H              1 <1>                0.0000
     36 H36         -3.5623   0.5735   4.8774 H              1 <1>                0.0000
@<TRIPOS>BOND
    1    1    2 1     
    2    1   20 1     
    3    1   21 1     
    4    1   22 1     
    5    2    3 am    
    6    2   23 1     
    7    3    4 2     
    8    3    5 1     
    9    5   10 1     
   10    5    6 1     
   11    5   24 1     
   12    6    7 1     
   13    6   25 1     
   14    6   26 1     
   15    7    8 1     
   16    7    9 1     
   17    7   27 1     
   18    8   28 1     
   19    9   10 1     
   20    9   29 1     
   21    9   30 1     
   22   10   11 am    
   23   11   12 2     
   24   11   13 1     
   25   13   14 1     
   26   13   31 1     
   27   13   32 1     
   28   14   19 1     
   29   14   15 2     
   30   15   16 1     
   31   15   33 1     
   32   16   17 1     
   33   16   18 2     
   34   17   34 1     
   35   17   35 1     
   36   17   36 1     
   37   18   19 1     
@<TRIPOS>SUBSTRUCTURE
      1 ****           1
@<TRIPOS>SET
DONOR_HYDROGENS      STATIC     ATOMS    <user>   **** ""
2 23 28
ATOM$RED        STATIC     ATOMS    COLORGROUP SYSTEM
2 23 28
