#       Name:                QID
#       Creating user name   gbret
#       Creation time:       Fri Sep  9 15:09:04 2016


#       File generated by GOLD software.
#

@<TRIPOS>MOLECULE
QID
    32    34     1
SMALL
NO_CHARGES


@<TRIPOS>ATOM
      1 O1           2.0273   5.0876  -1.0560 O.3            1 <1>                0.0000
      2 N2           2.0465   3.6716  -1.0638 N.am           1 <1>                0.0000
      3 C3           3.2250   3.0294  -1.0729 C.2            1 <1>                0.0000
      4 O4           4.2467   3.6883  -1.0742 O.2            1 <1>                0.0000
      5 N5           3.3240   1.6889  -1.0802 N.am           1 <1>                0.0000
      6 H6           4.1999   1.2720  -1.0864 H              1 <1>                0.0000
      7 C7           2.1857   0.8958  -1.0786 C.ar           1 <1>                0.0000
      8 C8           2.2648  -0.4884  -1.0856 C.ar           1 <1>                0.0000
      9 C9           1.1073  -1.2409  -1.0832 C.ar           1 <1>                0.0000
     10 C10         -0.1355  -0.6261  -1.0744 C.ar           1 <1>                0.0000
     11 C11         -0.2339   0.7495  -1.0674 C.ar           1 <1>                0.0000
     12 C12          0.9263   1.5202  -1.0692 C.ar           1 <1>                0.0000
     13 C13          0.8785   2.9933  -1.0563 C.2            1 <1>                0.0000
     14 O14         -0.1850   3.5826  -1.0435 O.2            1 <1>                0.0000
     15 S15         -1.5982  -1.6083  -1.0727 S.o2           1 <1>                0.0000
     16 O16         -2.6305  -0.7919  -1.6083 O.2            1 <1>                0.0000
     17 O17         -1.2371  -2.8668  -1.6253 O.2            1 <1>                0.0000
     18 C18         -2.0235  -1.9078   0.6107 C.ar           1 <1>                0.0000
     19 C19         -1.5184  -3.0160   1.2647 C.ar           1 <1>                0.0000
     20 C20         -1.8521  -3.2510   2.5854 C.ar           1 <1>                0.0000
     21 C21         -2.6905  -2.3773   3.2524 C.ar           1 <1>                0.0000
     22 C22         -3.1949  -1.2687   2.5987 C.ar           1 <1>                0.0000
     23 C23         -2.8578  -1.0315   1.2792 C.ar           1 <1>                0.0000
     24 H24          2.9052   5.4928  -1.0622 H              1 <1>                0.0000
     25 H25          3.2283  -0.9760  -1.0932 H              1 <1>                0.0000
     26 H26          1.1704  -2.3190  -1.0887 H              1 <1>                0.0000
     27 H27         -1.2033   1.2255  -1.0609 H              1 <1>                0.0000
     28 H28         -0.8634  -3.6986   0.7436 H              1 <1>                0.0000
     29 H29         -1.4580  -4.1172   3.0961 H              1 <1>                0.0000
     30 H30         -2.9517  -2.5613   4.2840 H              1 <1>                0.0000
     31 H31         -3.8502  -0.5864   3.1197 H              1 <1>                0.0000
     32 H32         -3.2518  -0.1653   0.7686 H              1 <1>                0.0000
@<TRIPOS>BOND
    1    1    2 1     
    2    1   24 1     
    3    2   13 am    
    4    2    3 am    
    5    3    4 2     
    6    3    5 am    
    7    5    6 1     
    8    5    7 1     
    9    7   12 ar    
   10    7    8 ar    
   11    8    9 ar    
   12    8   25 1     
   13    9   10 ar    
   14    9   26 1     
   15   10   11 ar    
   16   10   15 1     
   17   11   12 ar    
   18   11   27 1     
   19   12   13 1     
   20   13   14 2     
   21   15   16 2     
   22   15   17 2     
   23   15   18 1     
   24   18   23 ar    
   25   18   19 ar    
   26   19   20 ar    
   27   19   28 1     
   28   20   21 ar    
   29   20   29 1     
   30   21   22 ar    
   31   21   30 1     
   32   22   23 ar    
   33   22   31 1     
   34   23   32 1     
@<TRIPOS>SUBSTRUCTURE
      1 ****           1
@<TRIPOS>SET
DONOR_HYDROGENS      STATIC     ATOMS    <user>   **** ""
2 24 6
ATOM$RED        STATIC     ATOMS    COLORGROUP SYSTEM
2 24 6
