#       Name:                QPS
#       Creating user name   gbret
#       Creation time:       Fri Sep  9 15:12:24 2016


#       File generated by GOLD software.
#

@<TRIPOS>MOLECULE
QPS
    88    91     1
SMALL
NO_CHARGES


@<TRIPOS>ATOM
      1 C1          -2.2415   3.7009   1.0774 C.3            1 <1>                0.0000
      2 C2          -2.1717   2.2206   1.4579 C.3            1 <1>                0.0000
      3 O3          -1.5303   1.4892   0.4111 O.3            1 <1>                0.0000
      4 C4          -1.4353   0.0843   0.6544 C.3            1 <1>                0.0000
      5 O5          -0.8051  -0.5508  -0.4599 O.3            1 <1>                0.0000
      6 C6          -1.5587  -0.4797  -1.6720 C.3            1 <1>                0.0000
      7 C7          -0.6038  -0.4776  -2.8686 C.3            1 <1>                0.0000
      8 C8           0.3652   0.7001  -2.7461 C.3            1 <1>                0.0000
      9 O9           1.1792   0.7712  -3.9185 O.3            1 <1>                0.0000
     10 O10          0.1338  -1.7013  -2.8899 O.3            1 <1>                0.0000
     11 C11         -0.6777  -2.8694  -3.0284 C.3            1 <1>                0.0000
     12 O12          0.1575  -4.0284  -3.0648 O.3            1 <1>                0.0000
     13 C13          1.0160  -4.0904  -4.2055 C.3            1 <1>                0.0000
     14 C14          2.2956  -4.8483  -3.8421 C.3            1 <1>                0.0000
     15 C15          2.9835  -4.1534  -2.6653 C.3            1 <1>                0.0000
     16 O16          4.2349  -4.7907  -2.4012 O.3            1 <1>                0.0000
     17 O17          1.9655  -6.1898  -3.4765 O.3            1 <1>                0.0000
     18 C18          1.3384  -6.9409  -4.5181 C.3            1 <1>                0.0000
     19 O19          1.0769  -8.2681  -4.0574 O.3            1 <1>                0.0000
     20 C20          0.0204  -6.2670  -4.9086 C.3            1 <1>                0.0000
     21 O21         -0.8645  -6.2626  -3.7866 O.3            1 <1>                0.0000
     22 C22          0.3023  -4.8257  -5.3440 C.3            1 <1>                0.0000
     23 O23         -0.9303  -4.1662  -5.6403 O.3            1 <1>                0.0000
     24 C24         -1.6355  -2.9676  -1.8381 C.3            1 <1>                0.0000
     25 O25         -0.8840  -3.1046  -0.6304 O.3            1 <1>                0.0000
     26 C26         -2.4856  -1.6952  -1.7705 C.3            1 <1>                0.0000
     27 O27         -3.3314  -1.7459  -0.6198 O.3            1 <1>                0.0000
     28 C28         -0.6048  -0.1586   1.9173 C.3            1 <1>                0.0000
     29 O29          0.7212   0.3359   1.7192 O.3            1 <1>                0.0000
     30 C30         -1.2540   0.5750   3.0948 C.3            1 <1>                0.0000
     31 O31         -0.4458   0.4145   4.2623 O.3            1 <1>                0.0000
     32 C32         -1.3707   2.0636   2.7531 C.3            1 <1>                0.0000
     33 N33         -0.0285   2.6324   2.5722 N.4            1 <1>                0.0000
     34 H34          0.6164   2.1800   3.2027 H              1 <1>                0.0000
     35 H35          0.2733   2.4863   1.6205 H              1 <1>                0.0000
     36 C36         -0.0643   4.0727   2.8589 C.3            1 <1>                0.0000
     37 C37         -0.3741   4.2832   4.3121 C.2            1 <1>                0.0000
     38 C38          0.2231   5.1525   5.0624 C.2            1 <1>                0.0000
     39 C39         -0.2055   5.2552   6.5035 C.3            1 <1>                0.0000
     40 O40         -1.2481   4.3119   6.7588 O.3            1 <1>                0.0000
     41 C41          1.3160   6.0643   4.5867 C.3            1 <1>                0.0000
     42 O42          2.5766   5.5725   5.0461 O.3            1 <1>                0.0000
     43 C43          1.3225   6.1263   3.0578 C.3            1 <1>                0.0000
     44 O44          2.5085   6.7849   2.6087 O.3            1 <1>                0.0000
     45 C45          1.2917   4.6925   2.5139 C.3            1 <1>                0.0000
     46 O46          2.3367   3.9272   3.1175 O.3            1 <1>                0.0000
     47 H47         -1.2504   4.0483   0.7859 H              1 <1>                0.0000
     48 H48         -2.9315   3.8295   0.2434 H              1 <1>                0.0000
     49 H49         -2.5925   4.2795   1.9319 H              1 <1>                0.0000
     50 H50         -3.1806   1.8352   1.6055 H              1 <1>                0.0000
     51 H51         -2.4345  -0.3293   0.7911 H              1 <1>                0.0000
     52 H52         -2.1536   0.4336  -1.6780 H              1 <1>                0.0000
     53 H53         -1.1769  -0.3824  -3.7909 H              1 <1>                0.0000
     54 H54         -0.2000   1.6261  -2.6396 H              1 <1>                0.0000
     55 H55          0.9997   0.5591  -1.8712 H              1 <1>                0.0000
     56 H56          1.8187   1.4965  -3.9099 H              1 <1>                0.0000
     57 H57         -1.2517  -2.8058  -3.9528 H              1 <1>                0.0000
     58 H58          1.2689  -3.0799  -4.5265 H              1 <1>                0.0000
     59 H59          2.9673  -4.8601  -4.7004 H              1 <1>                0.0000
     60 H60          3.1543  -3.1054  -2.9116 H              1 <1>                0.0000
     61 H61          2.3482  -4.2202  -1.7821 H              1 <1>                0.0000
     62 H62          4.7271  -4.4013  -1.6655 H              1 <1>                0.0000
     63 H63          1.9976  -6.9803  -5.3852 H              1 <1>                0.0000
     64 H64          1.8688  -8.7553  -3.7915 H              1 <1>                0.0000
     65 H65         -0.4383  -6.8142  -5.7322 H              1 <1>                0.0000
     66 H66         -1.0827  -7.1441  -3.4543 H              1 <1>                0.0000
     67 H67          0.9372  -4.8300  -6.2299 H              1 <1>                0.0000
     68 H68         -1.4391  -4.5833  -6.3490 H              1 <1>                0.0000
     69 H69         -2.2847  -3.8342  -1.9635 H              1 <1>                0.0000
     70 H70         -0.3181  -3.8883  -0.6061 H              1 <1>                0.0000
     71 H71         -3.0960  -1.6162  -2.6701 H              1 <1>                0.0000
     72 H72         -3.9412  -2.4963  -0.6126 H              1 <1>                0.0000
     73 H73         -0.5672  -1.2272   2.1287 H              1 <1>                0.0000
     74 H74          1.1911  -0.0818   0.9845 H              1 <1>                0.0000
     75 H75         -2.2462   0.1629   3.2788 H              1 <1>                0.0000
     76 H76         -0.3237  -0.5059   4.5327 H              1 <1>                0.0000
     77 H77         -1.8819   2.5843   3.5629 H              1 <1>                0.0000
     78 H78         -0.8404   4.5422   2.2544 H              1 <1>                0.0000
     79 H79         -1.1434   3.6714   4.7596 H              1 <1>                0.0000
     80 H80          0.6445   5.0414   7.1515 H              1 <1>                0.0000
     81 H81         -0.5702   6.2628   6.7032 H              1 <1>                0.0000
     82 H82         -1.5737   4.3222   7.6692 H              1 <1>                0.0000
     83 H83          1.1513   7.0649   4.9862 H              1 <1>                0.0000
     84 H84          2.6496   5.5159   6.0087 H              1 <1>                0.0000
     85 H85          0.4459   6.6726   2.7095 H              1 <1>                0.0000
     86 H86          2.6001   7.6923   2.9299 H              1 <1>                0.0000
     87 H87          1.4228   4.7081   1.4319 H              1 <1>                0.0000
     88 H88          3.2240   4.2743   2.9525 H              1 <1>                0.0000
@<TRIPOS>BOND
    1    1    2 1     
    2    1   47 1     
    3    1   48 1     
    4    1   49 1     
    5    2   32 1     
    6    2    3 1     
    7    2   50 1     
    8    3    4 1     
    9    4    5 1     
   10    4   28 1     
   11    4   51 1     
   12    5    6 1     
   13    6   26 1     
   14    6    7 1     
   15    6   52 1     
   16    7    8 1     
   17    7   10 1     
   18    7   53 1     
   19    8    9 1     
   20    8   54 1     
   21    8   55 1     
   22    9   56 1     
   23   10   11 1     
   24   11   12 1     
   25   11   24 1     
   26   11   57 1     
   27   12   13 1     
   28   13   22 1     
   29   13   14 1     
   30   13   58 1     
   31   14   15 1     
   32   14   17 1     
   33   14   59 1     
   34   15   16 1     
   35   15   60 1     
   36   15   61 1     
   37   16   62 1     
   38   17   18 1     
   39   18   19 1     
   40   18   20 1     
   41   18   63 1     
   42   19   64 1     
   43   20   21 1     
   44   20   22 1     
   45   20   65 1     
   46   21   66 1     
   47   22   23 1     
   48   22   67 1     
   49   23   68 1     
   50   24   25 1     
   51   24   26 1     
   52   24   69 1     
   53   25   70 1     
   54   26   27 1     
   55   26   71 1     
   56   27   72 1     
   57   28   29 1     
   58   28   30 1     
   59   28   73 1     
   60   29   74 1     
   61   30   31 1     
   62   30   32 1     
   63   30   75 1     
   64   31   76 1     
   65   32   33 1     
   66   32   77 1     
   67   33   34 1     
   68   33   35 1     
   69   33   36 1     
   70   36   45 1     
   71   36   37 1     
   72   36   78 1     
   73   37   38 2     
   74   37   79 1     
   75   38   39 1     
   76   38   41 1     
   77   39   40 1     
   78   39   80 1     
   79   39   81 1     
   80   40   82 1     
   81   41   42 1     
   82   41   43 1     
   83   41   83 1     
   84   42   84 1     
   85   43   44 1     
   86   43   45 1     
   87   43   85 1     
   88   44   86 1     
   89   45   46 1     
   90   45   87 1     
   91   46   88 1     
@<TRIPOS>SUBSTRUCTURE
      1 ****           1
@<TRIPOS>SET
DONOR_HYDROGENS      STATIC     ATOMS    <user>   **** ""
15 56 62 64 66 68 70 72 74 76 34 35 82 84 86 88
ATOM$RED        STATIC     ATOMS    COLORGROUP SYSTEM
15 56 62 64 66 68 70 72 74 76 34 35 82 84 86 88
