#       Name:                QUD
#       Creating user name   gbret
#       Creation time:       Fri Sep  9 15:13:53 2016


#       File generated by GOLD software.
#

@<TRIPOS>MOLECULE
QUD
    72    76     1
SMALL
NO_CHARGES


@<TRIPOS>ATOM
      1 N1          -1.5885   3.0029  -1.0212 N.pl3          1 <1>                0.0000
      2 C2          -1.6029   1.6237  -1.1355 C.ar           1 <1>                0.0000
      3 N3          -2.7537   0.9909  -1.0173 N.ar           1 <1>                0.0000
      4 C4          -2.8031  -0.3431  -1.1225 C.ar           1 <1>                0.0000
      5 C5          -4.0078  -1.0524  -1.0034 C.ar           1 <1>                0.0000
      6 C6          -4.0055  -2.4089  -1.1186 C.ar           1 <1>                0.0000
      7 C7          -2.8192  -3.1100  -1.3545 C.ar           1 <1>                0.0000
      8 O8          -2.8507  -4.4642  -1.4649 O.3            1 <1>                0.0000
      9 C9          -2.4113  -5.2006  -0.4108 C.ar           1 <1>                0.0000
     10 C10         -2.0714  -4.5752   0.7803 C.ar           1 <1>                0.0000
     11 C11         -1.6249  -5.3262   1.8502 C.ar           1 <1>                0.0000
     12 C12         -1.5165  -6.6998   1.7351 C.ar           1 <1>                0.0000
     13 C13         -1.8545  -7.3255   0.5493 C.ar           1 <1>                0.0000
     14 C14         -2.3070  -6.5798  -0.5219 C.ar           1 <1>                0.0000
     15 C15         -1.6279  -2.4504  -1.4759 C.ar           1 <1>                0.0000
     16 C16         -1.5983  -1.0533  -1.3620 C.ar           1 <1>                0.0000
     17 C17         -0.4021  -0.3211  -1.4782 C.ar           1 <1>                0.0000
     18 N18         -0.4549   0.9897  -1.3657 N.pl3          1 <1>                0.0000
     19 C19          0.7806   1.7680  -1.4843 C.3            1 <1>                0.0000
     20 C20          1.7292   1.3961  -0.3429 C.3            1 <1>                0.0000
     21 N21          1.1232   1.7704   0.9373 N.am           1 <1>                0.0000
     22 C22          1.8219   1.6276   2.0809 C.2            1 <1>                0.0000
     23 O23          2.9523   1.1893   2.0502 O.2            1 <1>                0.0000
     24 C24          1.1985   2.0126   3.3977 C.3            1 <1>                0.0000
     25 C25         -0.0627   1.1777   3.6285 C.3            1 <1>                0.0000
     26 C26         -0.6956   1.5685   4.9655 C.3            1 <1>                0.0000
     27 C27          0.3014   1.3096   6.0968 C.3            1 <1>                0.0000
     28 C28          1.5626   2.1445   5.8660 C.3            1 <1>                0.0000
     29 C29          2.1955   1.7537   4.5290 C.3            1 <1>                0.0000
     30 C30          1.4505   1.4602  -2.8251 C.3            1 <1>                0.0000
     31 C31          0.5367   1.9097  -3.9668 C.3            1 <1>                0.0000
     32 C32          1.2065   1.6018  -5.3075 C.3            1 <1>                0.0000
     33 C33          2.5384   2.3496  -5.3957 C.3            1 <1>                0.0000
     34 C34          3.4523   1.9001  -4.2539 C.3            1 <1>                0.0000
     35 C35          2.7824   2.2079  -2.9132 C.3            1 <1>                0.0000
     36 H36         -0.7531   3.4881  -1.1088 H              1 <1>                0.0000
     37 H37         -2.4143   3.4846  -0.8576 H              1 <1>                0.0000
     38 H38         -4.9323  -0.5248  -0.8208 H              1 <1>                0.0000
     39 H39         -4.9344  -2.9519  -1.0260 H              1 <1>                0.0000
     40 H40         -2.1555  -3.5023   0.8707 H              1 <1>                0.0000
     41 H41         -1.3599  -4.8399   2.7774 H              1 <1>                0.0000
     42 H42         -1.1669  -7.2851   2.5728 H              1 <1>                0.0000
     43 H43         -1.7690  -8.3985   0.4620 H              1 <1>                0.0000
     44 H44         -2.5709  -7.0690  -1.4479 H              1 <1>                0.0000
     45 H45         -0.7169  -3.0012  -1.6577 H              1 <1>                0.0000
     46 H46          0.5369  -0.8225  -1.6605 H              1 <1>                0.0000
     47 H47          0.5468   2.8312  -1.4306 H              1 <1>                0.0000
     48 H48          1.9122   0.3217  -0.3580 H              1 <1>                0.0000
     49 H49          2.6730   1.9272  -0.4672 H              1 <1>                0.0000
     50 H50          0.2191   2.1209   0.9618 H              1 <1>                0.0000
     51 H51          0.9358   3.0703   3.3800 H              1 <1>                0.0000
     52 H52         -0.7730   1.3621   2.8225 H              1 <1>                0.0000
     53 H53          0.2000   0.1199   3.6462 H              1 <1>                0.0000
     54 H54         -0.9583   2.6262   4.9476 H              1 <1>                0.0000
     55 H55         -1.5941   0.9737   5.1297 H              1 <1>                0.0000
     56 H56         -0.1495   1.5880   7.0493 H              1 <1>                0.0000
     57 H57          0.5641   0.2519   6.1144 H              1 <1>                0.0000
     58 H58          1.2999   3.2022   5.8483 H              1 <1>                0.0000
     59 H59          2.2729   1.9601   6.6720 H              1 <1>                0.0000
     60 H60          2.4582   0.6959   4.5469 H              1 <1>                0.0000
     61 H61          3.0940   2.3485   4.3647 H              1 <1>                0.0000
     62 H62          1.6299   0.3879  -2.9038 H              1 <1>                0.0000
     63 H63         -0.4122   1.3769  -3.9040 H              1 <1>                0.0000
     64 H64          0.3573   2.9819  -3.8880 H              1 <1>                0.0000
     65 H65          1.3859   0.5296  -5.3864 H              1 <1>                0.0000
     66 H66          0.5555   1.9221  -6.1211 H              1 <1>                0.0000
     67 H67          3.0157   2.1303  -6.3508 H              1 <1>                0.0000
     68 H68          2.3591   3.4218  -5.3170 H              1 <1>                0.0000
     69 H69          3.6317   0.8279  -4.3327 H              1 <1>                0.0000
     70 H70          4.4012   2.4328  -4.3167 H              1 <1>                0.0000
     71 H71          2.6030   3.2802  -2.8344 H              1 <1>                0.0000
     72 H72          3.4334   1.8877  -2.0998 H              1 <1>                0.0000
@<TRIPOS>BOND
    1    1    2 1     
    2    1   36 1     
    3    1   37 1     
    4    2   18 ar    
    5    2    3 ar    
    6    3    4 ar    
    7    4   16 ar    
    8    4    5 ar    
    9    5    6 ar    
   10    5   38 1     
   11    6    7 ar    
   12    6   39 1     
   13    7    8 1     
   14    7   15 ar    
   15    8    9 1     
   16    9   14 ar    
   17    9   10 ar    
   18   10   11 ar    
   19   10   40 1     
   20   11   12 ar    
   21   11   41 1     
   22   12   13 ar    
   23   12   42 1     
   24   13   14 ar    
   25   13   43 1     
   26   14   44 1     
   27   15   16 ar    
   28   15   45 1     
   29   16   17 ar    
   30   17   18 ar    
   31   17   46 1     
   32   18   19 1     
   33   19   20 1     
   34   19   30 1     
   35   19   47 1     
   36   20   21 1     
   37   20   48 1     
   38   20   49 1     
   39   21   22 am    
   40   21   50 1     
   41   22   23 2     
   42   22   24 1     
   43   24   29 1     
   44   24   25 1     
   45   24   51 1     
   46   25   26 1     
   47   25   52 1     
   48   25   53 1     
   49   26   27 1     
   50   26   54 1     
   51   26   55 1     
   52   27   28 1     
   53   27   56 1     
   54   27   57 1     
   55   28   29 1     
   56   28   58 1     
   57   28   59 1     
   58   29   60 1     
   59   29   61 1     
   60   30   35 1     
   61   30   31 1     
   62   30   62 1     
   63   31   32 1     
   64   31   63 1     
   65   31   64 1     
   66   32   33 1     
   67   32   65 1     
   68   32   66 1     
   69   33   34 1     
   70   33   67 1     
   71   33   68 1     
   72   34   35 1     
   73   34   69 1     
   74   34   70 1     
   75   35   71 1     
   76   35   72 1     
@<TRIPOS>SUBSTRUCTURE
      1 ****           1
@<TRIPOS>SET
DONOR_HYDROGENS      STATIC     ATOMS    <user>   **** ""
3 36 37 50
ATOM$RED        STATIC     ATOMS    COLORGROUP SYSTEM
3 36 37 50
