#       Name:                R11
#       Creating user name   gbret
#       Creation time:       Fri Sep  9 15:16:49 2016


#       File generated by GOLD software.
#

@<TRIPOS>MOLECULE
R11
    58    62     1
SMALL
NO_CHARGES


@<TRIPOS>ATOM
      1 C1          -4.9639   0.3520  -2.1916 C.3            1 <1>                0.0000
      2 C2          -4.9434  -1.1549  -2.1999 C.2            1 <1>                0.0000
      3 N3          -4.9379  -1.8943  -3.2704 N.2            1 <1>                0.0000
      4 C4          -4.9186  -3.2058  -2.9192 C.ar           1 <1>                0.0000
      5 C5          -4.9059  -4.3984  -3.6474 C.ar           1 <1>                0.0000
      6 C6          -4.8872  -5.5964  -2.9912 C.ar           1 <1>                0.0000
      7 C7          -4.8812  -5.6439  -1.6043 C.ar           1 <1>                0.0000
      8 C8          -4.8935  -4.4802  -0.8654 C.ar           1 <1>                0.0000
      9 C9          -4.9121  -3.2533  -1.5149 C.ar           1 <1>                0.0000
     10 N10         -4.9222  -1.9401  -1.0892 N.pl3          1 <1>                0.0000
     11 C11         -4.9146  -1.4779   0.3009 C.3            1 <1>                0.0000
     12 C12         -3.4913  -1.3043   0.7648 C.ar           1 <1>                0.0000
     13 C13         -2.8252  -2.3710   1.3514 C.ar           1 <1>                0.0000
     14 C14         -1.5229  -2.2304   1.7812 C.ar           1 <1>                0.0000
     15 C15         -0.8751  -1.0124   1.6253 C.ar           1 <1>                0.0000
     16 N16          0.3871  -0.5479   1.9367 N.pl3          1 <1>                0.0000
     17 C17          1.4609  -1.3132   2.5750 C.3            1 <1>                0.0000
     18 C18          0.4489   0.7521   1.5408 C.2            1 <1>                0.0000
     19 C19          1.6537   1.6445   1.6930 C.3            1 <1>                0.0000
     20 N20          2.4971   1.5340   0.5002 N.pl3          1 <1>                0.0000
     21 C21          3.6738   2.2703   0.4097 C.ar           1 <1>                0.0000
     22 C22          4.0516   3.1073   1.4557 C.ar           1 <1>                0.0000
     23 C23          5.2157   3.8368   1.3691 C.ar           1 <1>                0.0000
     24 C24          6.0183   3.7364   0.2299 C.ar           1 <1>                0.0000
     25 C25          5.6366   2.8953  -0.8185 C.ar           1 <1>                0.0000
     26 C26          4.4741   2.1642  -0.7241 C.ar           1 <1>                0.0000
     27 C27          7.2676   4.5181   0.1338 C.2            1 <1>                0.0000
     28 N28          8.2962   4.0465  -0.5703 N.pl3          1 <1>                0.0000
     29 N29          7.3663   5.6950   0.7513 N.pl3          1 <1>                0.0000
     30 H30          6.6177   6.0382   1.2639 H              1 <1>                0.0000
     31 H31          8.1868   6.2086   0.6881 H              1 <1>                0.0000
     32 N32         -0.6835   1.1126   1.0113 N.2            1 <1>                0.0000
     33 C33         -1.5501   0.0674   1.0313 C.ar           1 <1>                0.0000
     34 C34         -2.8682  -0.1001   0.5985 C.ar           1 <1>                0.0000
     35 H35         -3.9413   0.7293  -2.1993 H              1 <1>                0.0000
     36 H36         -5.4910   0.7131  -3.0747 H              1 <1>                0.0000
     37 H37         -5.4741   0.7035  -1.2948 H              1 <1>                0.0000
     38 H38         -4.9111  -4.3731  -4.7271 H              1 <1>                0.0000
     39 H39         -4.8774  -6.5160  -3.5576 H              1 <1>                0.0000
     40 H40         -4.8672  -6.5990  -1.1004 H              1 <1>                0.0000
     41 H41         -4.8885  -4.5226   0.2138 H              1 <1>                0.0000
     42 H42         -5.4380  -0.5242   0.3696 H              1 <1>                0.0000
     43 H43         -5.4150  -2.2132   0.9310 H              1 <1>                0.0000
     44 H44         -3.3305  -3.3178   1.4723 H              1 <1>                0.0000
     45 H45         -1.0091  -3.0636   2.2374 H              1 <1>                0.0000
     46 H46          2.0646  -1.8004   1.8093 H              1 <1>                0.0000
     47 H47          2.0888  -0.6404   3.1592 H              1 <1>                0.0000
     48 H48          1.0283  -2.0682   3.2315 H              1 <1>                0.0000
     49 H49          1.3277   2.6777   1.8130 H              1 <1>                0.0000
     50 H50          2.2236   1.3391   2.5705 H              1 <1>                0.0000
     51 H51          2.2350   0.9473  -0.2265 H              1 <1>                0.0000
     52 H52          3.4306   3.1848   2.3359 H              1 <1>                0.0000
     53 H53          5.5081   4.4863   2.1808 H              1 <1>                0.0000
     54 H54          6.2549   2.8160  -1.7004 H              1 <1>                0.0000
     55 H55          4.1787   1.5137  -1.5340 H              1 <1>                0.0000
     56 H56          8.2244   3.1899  -1.0197 H              1 <1>                0.0000
     57 H57          9.1168   4.5600  -0.6334 H              1 <1>                0.0000
     58 H58         -3.3942   0.7219   0.1360 H              1 <1>                0.0000
@<TRIPOS>BOND
    1    1    2 1     
    2    1   35 1     
    3    1   36 1     
    4    1   37 1     
    5    2   10 1     
    6    2    3 2     
    7    3    4 1     
    8    4    9 ar    
    9    4    5 ar    
   10    5    6 ar    
   11    5   38 1     
   12    6    7 ar    
   13    6   39 1     
   14    7    8 ar    
   15    7   40 1     
   16    8    9 ar    
   17    8   41 1     
   18    9   10 1     
   19   10   11 1     
   20   11   12 1     
   21   11   42 1     
   22   11   43 1     
   23   12   34 ar    
   24   12   13 ar    
   25   13   14 ar    
   26   13   44 1     
   27   14   15 ar    
   28   14   45 1     
   29   15   33 ar    
   30   15   16 1     
   31   16   17 1     
   32   16   18 1     
   33   17   46 1     
   34   17   47 1     
   35   17   48 1     
   36   18   19 1     
   37   18   32 2     
   38   19   20 1     
   39   19   49 1     
   40   19   50 1     
   41   20   21 1     
   42   20   51 1     
   43   21   26 ar    
   44   21   22 ar    
   45   22   23 ar    
   46   22   52 1     
   47   23   24 ar    
   48   23   53 1     
   49   24   25 ar    
   50   24   27 1     
   51   25   26 ar    
   52   25   54 1     
   53   26   55 1     
   54   27   28 2     
   55   27   29 1     
   56   28   56 1     
   57   28   57 1     
   58   29   30 1     
   59   29   31 1     
   60   32   33 1     
   61   33   34 ar    
   62   34   58 1     
@<TRIPOS>SUBSTRUCTURE
      1 ****           1
@<TRIPOS>SET
DONOR_HYDROGENS      STATIC     ATOMS    <user>   **** ""
5 51 56 57 30 31
ATOM$RED        STATIC     ATOMS    COLORGROUP SYSTEM
5 51 56 57 30 31
