#       Name:                R30
#       Creating user name   gbret
#       Creation time:       Fri Sep  9 15:18:46 2016


#       File generated by GOLD software.
#

@<TRIPOS>MOLECULE
R30
    51    54     1
SMALL
NO_CHARGES


@<TRIPOS>ATOM
      1 C1          -4.4644  -0.2679  -6.4373 C.3            1 <1>                0.0000
      2 C2          -3.3511   0.7097  -6.0555 C.3            1 <1>                0.0000
      3 C3          -2.6584   0.2205  -4.8097 C.2            1 <1>                0.0000
      4 O4          -3.0198  -0.8087  -4.2794 O.2            1 <1>                0.0000
      5 N5          -1.6375   0.9267  -4.2849 N.am           1 <1>                0.0000
      6 C6          -1.0579   0.5258  -3.0744 C.ar           1 <1>                0.0000
      7 C7          -0.6006   1.4791  -2.1741 C.ar           1 <1>                0.0000
      8 C8          -0.0294   1.0839  -0.9811 C.ar           1 <1>                0.0000
      9 C9           0.0881  -0.2669  -0.6814 C.ar           1 <1>                0.0000
     10 C10         -0.3692  -1.2203  -1.5817 C.ar           1 <1>                0.0000
     11 C11         -0.9456  -0.8250  -2.7721 C.ar           1 <1>                0.0000
     12 N12          0.6682  -0.6679   0.5289 N.am           1 <1>                0.0000
     13 C13          0.9516  -2.0846   0.7714 C.3            1 <1>                0.0000
     14 C14          2.2924  -2.4370   0.1804 C.2            1 <1>                0.0000
     15 C15          2.4516  -2.7837  -1.1502 C.2            1 <1>                0.0000
     16 C16          3.7042  -3.0662  -1.5114 C.2            1 <1>                0.0000
     17 S17          4.7709  -2.8965  -0.1232 S.3            1 <1>                0.0000
     18 C18          3.4165  -2.4329   0.8986 C.2            1 <1>                0.0000
     19 C19          0.9655   0.2496   1.4703 C.2            1 <1>                0.0000
     20 O20          0.6301   1.4052   1.3182 O.2            1 <1>                0.0000
     21 C21          1.7147  -0.1604   2.7120 C.3            1 <1>                0.0000
     22 N22          1.8081   0.9813   3.6252 N.pl3          1 <1>                0.0000
     23 N23          2.8261   1.9458   3.6620 N.2            1 <1>                0.0000
     24 N24          2.5755   2.7970   4.5935 N.2            1 <1>                0.0000
     25 C25          1.4249   2.4802   5.2200 C.ar           1 <1>                0.0000
     26 C26          0.7179   3.0648   6.2793 C.ar           1 <1>                0.0000
     27 C27         -0.4489   2.5026   6.7076 C.ar           1 <1>                0.0000
     28 C28         -0.9468   1.3541   6.1056 C.ar           1 <1>                0.0000
     29 C29         -0.2762   0.7648   5.0708 C.ar           1 <1>                0.0000
     30 C30          0.9124   1.3216   4.6109 C.ar           1 <1>                0.0000
     31 H31         -5.1856  -0.3334  -5.6226 H              1 <1>                0.0000
     32 H32         -4.9654   0.0859  -7.3384 H              1 <1>                0.0000
     33 H33         -4.0355  -1.2526  -6.6229 H              1 <1>                0.0000
     34 H34         -2.6299   0.7752  -6.8702 H              1 <1>                0.0000
     35 H35         -3.7800   1.6944  -5.8699 H              1 <1>                0.0000
     36 H36         -1.3042   1.7127  -4.7454 H              1 <1>                0.0000
     37 H37         -0.6916   2.5297  -2.4074 H              1 <1>                0.0000
     38 H38          0.3266   1.8253  -0.2811 H              1 <1>                0.0000
     39 H39         -0.2775  -2.2709  -1.3487 H              1 <1>                0.0000
     40 H40         -1.3015  -1.5664  -3.4722 H              1 <1>                0.0000
     41 H41          0.9667  -2.2736   1.8448 H              1 <1>                0.0000
     42 H42          0.1777  -2.6949   0.3059 H              1 <1>                0.0000
     43 H43          1.6243  -2.8228  -1.8433 H              1 <1>                0.0000
     44 H44          4.0157  -3.3554  -2.5042 H              1 <1>                0.0000
     45 H45          3.4838  -2.1876   1.9482 H              1 <1>                0.0000
     46 H46          1.1848  -0.9763   3.2033 H              1 <1>                0.0000
     47 H47          2.7171  -0.4903   2.4392 H              1 <1>                0.0000
     48 H48          1.0958   3.9575   6.7554 H              1 <1>                0.0000
     49 H49         -0.9915   2.9555   7.5242 H              1 <1>                0.0000
     50 H50         -1.8719   0.9228   6.4587 H              1 <1>                0.0000
     51 H51         -0.6706  -0.1281   4.6085 H              1 <1>                0.0000
@<TRIPOS>BOND
    1    1    2 1     
    2    1   31 1     
    3    1   32 1     
    4    1   33 1     
    5    2    3 1     
    6    2   34 1     
    7    2   35 1     
    8    3    4 2     
    9    3    5 am    
   10    5    6 1     
   11    5   36 1     
   12    6   11 ar    
   13    6    7 ar    
   14    7    8 ar    
   15    7   37 1     
   16    8    9 ar    
   17    8   38 1     
   18    9   10 ar    
   19    9   12 1     
   20   10   11 ar    
   21   10   39 1     
   22   11   40 1     
   23   12   13 1     
   24   12   19 am    
   25   13   14 1     
   26   13   41 1     
   27   13   42 1     
   28   14   18 2     
   29   14   15 1     
   30   15   16 2     
   31   15   43 1     
   32   16   17 1     
   33   16   44 1     
   34   17   18 1     
   35   18   45 1     
   36   19   20 2     
   37   19   21 1     
   38   21   22 1     
   39   21   46 1     
   40   21   47 1     
   41   22   30 1     
   42   22   23 1     
   43   23   24 2     
   44   24   25 1     
   45   25   30 ar    
   46   25   26 ar    
   47   26   27 ar    
   48   26   48 1     
   49   27   28 ar    
   50   27   49 1     
   51   28   29 ar    
   52   28   50 1     
   53   29   30 ar    
   54   29   51 1     
@<TRIPOS>SUBSTRUCTURE
      1 ****           1
@<TRIPOS>SET
DONOR_HYDROGENS      STATIC     ATOMS    <user>   **** ""
1 36
ATOM$RED        STATIC     ATOMS    COLORGROUP SYSTEM
1 36
