#       Name:                R4M
#       Creating user name   gbret
#       Creation time:       Fri Sep  9 15:20:37 2016


#       File generated by GOLD software.
#

@<TRIPOS>MOLECULE
R4M
    48    49     1
SMALL
NO_CHARGES


@<TRIPOS>ATOM
      1 C1          -5.3189   0.9712  -0.4842 C.3            1 <1>                0.0000
      2 C2          -3.8119   1.1734  -0.6545 C.3            1 <1>                0.0000
      3 C3          -3.0745   0.3406   0.3905 C.3            1 <1>                0.0000
      4 C4          -1.5627   0.4424   0.1483 C.3            1 <1>                0.0000
      5 C5          -1.2783  -0.1806  -1.2029 C.2            1 <1>                0.0000
      6 C6          -0.2197  -0.9906  -1.3877 C.2            1 <1>                0.0000
      7 C7           0.7633  -1.1683  -0.3149 C.2            1 <1>                0.0000
      8 C8           1.2007  -2.5541   0.0843 C.3            1 <1>                0.0000
      9 C9           1.2700  -0.1049   0.3071 C.2            1 <1>                0.0000
     10 C10          2.1841  -0.2890   1.4910 C.3            1 <1>                0.0000
     11 C11          3.5023   0.4448   1.2365 C.3            1 <1>                0.0000
     12 C12          4.4164   0.2607   2.4203 C.2            1 <1>                0.0000
     13 C13          4.3024   1.1783   3.6103 C.3            1 <1>                0.0000
     14 C14          5.3255  -0.7135   2.4149 C.2            1 <1>                0.0000
     15 C15          6.1097  -0.9917   3.6232 C.2            1 <1>                0.0000
     16 O16          5.8660  -0.3927   4.6622 O.co2          1 <1>                0.0000
     17 O17          7.0074  -1.8227   3.5921 O.co2          1 <1>                0.0000
     18 C18         -2.2046   0.1322  -2.3103 C.ar           1 <1>                0.0000
     19 C19         -1.8631  -0.2182  -3.6190 C.ar           1 <1>                0.0000
     20 C20         -2.7293   0.0688  -4.6532 C.ar           1 <1>                0.0000
     21 C21         -3.9318   0.7022  -4.3916 C.ar           1 <1>                0.0000
     22 C22         -4.2728   1.0530  -3.0988 C.ar           1 <1>                0.0000
     23 C23         -3.4157   0.7737  -2.0494 C.ar           1 <1>                0.0000
     24 H24         -5.5657  -0.0776  -0.6489 H              1 <1>                0.0000
     25 H25         -5.6123   1.2594   0.5252 H              1 <1>                0.0000
     26 H26         -5.8523   1.5879  -1.2076 H              1 <1>                0.0000
     27 H27         -3.5738   2.2263  -0.5036 H              1 <1>                0.0000
     28 H28         -3.3092   0.7162   1.3865 H              1 <1>                0.0000
     29 H29         -3.3862  -0.7009   0.3115 H              1 <1>                0.0000
     30 H30         -1.2574   1.4887   0.1456 H              1 <1>                0.0000
     31 H31         -1.0254  -0.0994   0.9266 H              1 <1>                0.0000
     32 H32         -0.0944  -1.5097  -2.3264 H              1 <1>                0.0000
     33 H33          0.7496  -3.2851  -0.5869 H              1 <1>                0.0000
     34 H34          2.2866  -2.6246   0.0212 H              1 <1>                0.0000
     35 H35          0.8824  -2.7551   1.1072 H              1 <1>                0.0000
     36 H36          1.0256   0.8892  -0.0370 H              1 <1>                0.0000
     37 H37          1.7086   0.1171   2.3838 H              1 <1>                0.0000
     38 H38          2.3816  -1.3512   1.6358 H              1 <1>                0.0000
     39 H39          3.9777   0.0386   0.3437 H              1 <1>                0.0000
     40 H40          3.3048   1.5069   1.0916 H              1 <1>                0.0000
     41 H41          3.6691   0.7151   4.3669 H              1 <1>                0.0000
     42 H42          5.2935   1.3584   4.0265 H              1 <1>                0.0000
     43 H43          3.8620   2.1252   3.2980 H              1 <1>                0.0000
     44 H44          5.4851  -1.2983   1.5211 H              1 <1>                0.0000
     45 H45         -0.9239  -0.7120  -3.8201 H              1 <1>                0.0000
     46 H46         -2.4692  -0.2001  -5.6663 H              1 <1>                0.0000
     47 H47         -4.6085   0.9242  -5.2035 H              1 <1>                0.0000
     48 H48         -5.2132   1.5481  -2.9069 H              1 <1>                0.0000
@<TRIPOS>BOND
    1    1    2 1     
    2    1   24 1     
    3    1   25 1     
    4    1   26 1     
    5    2   23 1     
    6    2    3 1     
    7    2   27 1     
    8    3    4 1     
    9    3   28 1     
   10    3   29 1     
   11    4    5 1     
   12    4   30 1     
   13    4   31 1     
   14    5    6 2     
   15    5   18 1     
   16    6    7 1     
   17    6   32 1     
   18    7    8 1     
   19    7    9 2     
   20    8   33 1     
   21    8   34 1     
   22    8   35 1     
   23    9   10 1     
   24    9   36 1     
   25   10   11 1     
   26   10   37 1     
   27   10   38 1     
   28   11   12 1     
   29   11   39 1     
   30   11   40 1     
   31   12   13 1     
   32   12   14 2     
   33   13   41 1     
   34   13   42 1     
   35   13   43 1     
   36   14   15 1     
   37   14   44 1     
   38   15   16 ar    
   39   15   17 ar    
   40   18   23 ar    
   41   18   19 ar    
   42   19   20 ar    
   43   19   45 1     
   44   20   21 ar    
   45   20   46 1     
   46   21   22 ar    
   47   21   47 1     
   48   22   23 ar    
   49   22   48 1     
@<TRIPOS>SUBSTRUCTURE
      1 ****           1
