#       Name:                RJ6
#       Creating user name   gbret
#       Creation time:       Fri Sep  9 15:34:27 2016


#       File generated by GOLD software.
#

@<TRIPOS>MOLECULE
RJ6
    34    34     1
SMALL
NO_CHARGES


@<TRIPOS>ATOM
      1 C1          -1.0148   3.8937  -0.2798 C.3            1 <1>                0.0000
      2 O2          -1.2447   2.4957  -0.4659 O.3            1 <1>                0.0000
      3 C3          -0.5669   1.6451   0.3489 C.ar           1 <1>                0.0000
      4 C4          -0.7389   0.2756   0.2182 C.ar           1 <1>                0.0000
      5 C5          -0.0460  -0.5932   1.0504 C.ar           1 <1>                0.0000
      6 N6          -0.2187  -1.9748   0.9189 N.pl3          1 <1>                0.0000
      7 C7          -0.1623  -2.5600  -0.3254 C.cat          1 <1>                0.0000
      8 N8           0.6111  -3.5881  -0.5269 N.pl3          1 <1>                0.0000
      9 H9           0.7038  -3.9578  -1.4189 H              1 <1>                0.0000
     10 H10          1.0944  -3.9842   0.2150 H              1 <1>                0.0000
     11 N11         -0.9255  -2.0570  -1.3600 N.pl3          1 <1>                0.0000
     12 C12         -0.7827  -2.5640  -2.6280 C.cat          1 <1>                0.0000
     13 N13         -0.7787  -3.8810  -2.8216 N.pl3          1 <1>                0.0000
     14 N14         -0.6481  -1.7386  -3.6636 N.pl3          1 <1>                0.0000
     15 H15         -0.6509  -0.7790  -3.5225 H              1 <1>                0.0000
     16 H16         -0.5471  -2.0968  -4.5593 H              1 <1>                0.0000
     17 C17          0.8187  -0.0898   2.0128 C.ar           1 <1>                0.0000
     18 C18          0.9897   1.2799   2.1422 C.ar           1 <1>                0.0000
     19 O19          1.8364   1.7728   3.0840 O.3            1 <1>                0.0000
     20 C20          1.9641   3.1939   3.1616 C.3            1 <1>                0.0000
     21 C21          0.3011   2.1470   1.3071 C.ar           1 <1>                0.0000
     22 H22         -1.2938   4.1759   0.7354 H              1 <1>                0.0000
     23 H23          0.0408   4.1129  -0.4407 H              1 <1>                0.0000
     24 H24         -1.6158   4.4588  -0.9922 H              1 <1>                0.0000
     25 H25         -1.4121  -0.1152  -0.5305 H              1 <1>                0.0000
     26 H26         -0.3783  -2.5206   1.7047 H              1 <1>                0.0000
     27 H27         -1.5628  -1.3454  -1.1912 H              1 <1>                0.0000
     28 H28         -1.2860  -4.4596  -2.2310 H              1 <1>                0.0000
     29 H29         -0.2686  -4.2621  -3.5533 H              1 <1>                0.0000
     30 H30          1.3578  -0.7651   2.6607 H              1 <1>                0.0000
     31 H31          2.3293   3.5784   2.2093 H              1 <1>                0.0000
     32 H32          0.9919   3.6345   3.3825 H              1 <1>                0.0000
     33 H33          2.6684   3.4528   3.9521 H              1 <1>                0.0000
     34 H34          0.4347   3.2139   1.4084 H              1 <1>                0.0000
@<TRIPOS>BOND
    1    1    2 1     
    2    1   22 1     
    3    1   23 1     
    4    1   24 1     
    5    2    3 1     
    6    3   21 ar    
    7    3    4 ar    
    8    4    5 ar    
    9    4   25 1     
   10    5    6 1     
   11    5   17 ar    
   12    6    7 ar    
   13    6   26 1     
   14    7    8 ar    
   15    7   11 ar    
   16    8    9 1     
   17    8   10 1     
   18   11   12 ar    
   19   11   27 1     
   20   12   13 ar    
   21   12   14 ar    
   22   13   28 1     
   23   13   29 1     
   24   14   15 1     
   25   14   16 1     
   26   17   18 ar    
   27   17   30 1     
   28   18   19 1     
   29   18   21 ar    
   30   19   20 1     
   31   20   31 1     
   32   20   32 1     
   33   20   33 1     
   34   21   34 1     
@<TRIPOS>SUBSTRUCTURE
      1 ****           1
@<TRIPOS>SET
DONOR_HYDROGENS      STATIC     ATOMS    <user>   **** ""
8 26 9 10 27 28 29 15 16
ATOM$RED        STATIC     ATOMS    COLORGROUP SYSTEM
8 26 9 10 27 28 29 15 16
