#       Name:                RL3
#       Creating user name   gbret
#       Creation time:       Fri Sep  9 15:35:23 2016


#       File generated by GOLD software.
#

@<TRIPOS>MOLECULE
RL3
    46    49     1
SMALL
NO_CHARGES


@<TRIPOS>ATOM
      1 C1          -3.6740  -2.2048  -3.3286 C.3            1 <1>                0.0000
      2 N2          -2.7252  -1.2073  -2.8160 N.4            1 <1>                0.0000
      3 H3          -3.2296  -0.3825  -2.5272 H              1 <1>                0.0000
      4 C4          -2.0045  -1.7661  -1.6652 C.3            1 <1>                0.0000
      5 C5          -1.0985  -0.6891  -1.0593 C.3            1 <1>                0.0000
      6 N6          -0.2292  -0.1595  -2.1213 N.am           1 <1>                0.0000
      7 C7          -0.8568   0.2733  -3.3794 C.3            1 <1>                0.0000
      8 C8          -1.7729  -0.8507  -3.8751 C.3            1 <1>                0.0000
      9 C9           1.1044  -0.0728  -1.9464 C.2            1 <1>                0.0000
     10 O10          1.8170   0.2777  -2.8675 O.2            1 <1>                0.0000
     11 C11          1.6990  -0.4026  -0.6393 C.ar           1 <1>                0.0000
     12 C12          1.1534   0.1280   0.5311 C.ar           1 <1>                0.0000
     13 C13          1.7187  -0.1866   1.7613 C.ar           1 <1>                0.0000
     14 C14          1.1451   0.3717   3.0030 C.2            1 <1>                0.0000
     15 N15          0.8928  -0.2905   4.1144 N.2            1 <1>                0.0000
     16 N16          0.3959   0.5006   4.9990 N.2            1 <1>                0.0000
     17 C17          0.3004   1.7241   4.5018 C.2            1 <1>                0.0000
     18 C18         -0.1628   2.9460   5.0249 C.2            1 <1>                0.0000
     19 C19         -0.1308   4.0591   4.2431 C.2            1 <1>                0.0000
     20 C20          0.3623   3.9750   2.9290 C.2            1 <1>                0.0000
     21 Br21         0.4077   5.5207   1.8406 Br             1 <1>                0.0000
     22 C22          0.8040   2.7958   2.4404 C.2            1 <1>                0.0000
     23 N23          0.7823   1.6740   3.2156 N.pl3          1 <1>                0.0000
     24 C24          2.8354  -1.0364   1.8228 C.ar           1 <1>                0.0000
     25 O25          3.3868  -1.3439   3.0237 O.3            1 <1>                0.0000
     26 C26          3.3741  -1.5610   0.6608 C.ar           1 <1>                0.0000
     27 C27          2.8115  -1.2556  -0.5680 C.ar           1 <1>                0.0000
     28 O28          3.3429  -1.7726  -1.7039 O.3            1 <1>                0.0000
     29 H29         -3.1304  -3.0964  -3.6409 H              1 <1>                0.0000
     30 H30         -4.3836  -2.4681  -2.5441 H              1 <1>                0.0000
     31 H31         -4.2121  -1.7901  -4.1810 H              1 <1>                0.0000
     32 H32         -2.7211  -2.1020  -0.9157 H              1 <1>                0.0000
     33 H33         -1.3972  -2.6103  -1.9917 H              1 <1>                0.0000
     34 H34         -1.7092   0.1158  -0.6504 H              1 <1>                0.0000
     35 H35         -0.4873  -1.1263  -0.2697 H              1 <1>                0.0000
     36 H36         -1.4431   1.1754  -3.2049 H              1 <1>                0.0000
     37 H37         -0.0858   0.4724  -4.1238 H              1 <1>                0.0000
     38 H38         -1.1715  -1.7220  -4.1345 H              1 <1>                0.0000
     39 H39         -2.3204  -0.5120  -4.7547 H              1 <1>                0.0000
     40 H40          0.2950   0.7814   0.4808 H              1 <1>                0.0000
     41 H41         -0.5398   2.9993   6.0356 H              1 <1>                0.0000
     42 H42         -0.4831   5.0037   4.6303 H              1 <1>                0.0000
     43 H43          1.1808   2.7418   1.4297 H              1 <1>                0.0000
     44 H44          2.9629  -2.0885   3.4720 H              1 <1>                0.0000
     45 H45          4.2330  -2.2137   0.7123 H              1 <1>                0.0000
     46 H46          2.9640  -2.6235  -1.9635 H              1 <1>                0.0000
@<TRIPOS>BOND
    1    1    2 1     
    2    1   29 1     
    3    1   30 1     
    4    1   31 1     
    5    2    3 1     
    6    2    8 1     
    7    2    4 1     
    8    4    5 1     
    9    4   32 1     
   10    4   33 1     
   11    5    6 1     
   12    5   34 1     
   13    5   35 1     
   14    6    7 1     
   15    6    9 am    
   16    7    8 1     
   17    7   36 1     
   18    7   37 1     
   19    8   38 1     
   20    8   39 1     
   21    9   10 2     
   22    9   11 1     
   23   11   27 ar    
   24   11   12 ar    
   25   12   13 ar    
   26   12   40 1     
   27   13   14 1     
   28   13   24 ar    
   29   14   23 1     
   30   14   15 2     
   31   15   16 1     
   32   16   17 2     
   33   17   23 1     
   34   17   18 1     
   35   18   19 2     
   36   18   41 1     
   37   19   20 1     
   38   19   42 1     
   39   20   21 1     
   40   20   22 2     
   41   22   23 1     
   42   22   43 1     
   43   24   25 1     
   44   24   26 ar    
   45   25   44 1     
   46   26   27 ar    
   47   26   45 1     
   48   27   28 1     
   49   28   46 1     
@<TRIPOS>SUBSTRUCTURE
      1 ****           1
@<TRIPOS>SET
DONOR_HYDROGENS      STATIC     ATOMS    <user>   **** ""
3 3 44 46
ATOM$RED        STATIC     ATOMS    COLORGROUP SYSTEM
3 3 44 46
