#       Name:                RME
#       Creating user name   gbret
#       Creation time:       Fri Sep  9 15:36:19 2016


#       File generated by GOLD software.
#

@<TRIPOS>MOLECULE
RME
    39    40     1
SMALL
NO_CHARGES


@<TRIPOS>ATOM
      1 C1          -1.1390   5.1845   1.5435 C.3            1 <1>                0.0000
      2 C2          -1.1294   3.6546   1.5283 C.3            1 <1>                0.0000
      3 N3          -0.4399   3.1825   0.3249 N.am           1 <1>                0.0000
      4 C4          -0.3093   1.8604   0.0981 C.2            1 <1>                0.0000
      5 O5          -0.7636   1.0594   0.8922 O.2            1 <1>                0.0000
      6 C6           0.3845   1.3853  -1.1129 C.ar           1 <1>                0.0000
      7 C7           0.8133   2.2910  -2.0902 C.ar           1 <1>                0.0000
      8 C8           1.4601   1.7947  -3.2078 C.ar           1 <1>                0.0000
      9 C9           1.6635   0.4313  -3.3282 C.ar           1 <1>                0.0000
     10 N10          1.2517  -0.4060  -2.3966 N.ar           1 <1>                0.0000
     11 C11          0.6327   0.0156  -1.3044 C.ar           1 <1>                0.0000
     12 N12          0.2178  -0.8980  -0.3531 N.3            1 <1>                0.0000
     13 C13         -0.7148  -1.8751  -0.9326 C.3            1 <1>                0.0000
     14 C14         -1.1951  -2.8292   0.1631 C.3            1 <1>                0.0000
     15 N15         -0.0402  -3.5191   0.7527 N.4            1 <1>                0.0000
     16 H16          0.4465  -4.0341   0.0344 H              1 <1>                0.0000
     17 C17         -0.5033  -4.4479   1.7923 C.3            1 <1>                0.0000
     18 C18          0.8698  -2.5322   1.3489 C.3            1 <1>                0.0000
     19 C19          1.3674  -1.5755   0.2631 C.3            1 <1>                0.0000
     20 H20         -0.1136   5.5543   1.5436 H              1 <1>                0.0000
     21 H21         -1.6582   5.5534   0.6589 H              1 <1>                0.0000
     22 H22         -1.6519   5.5357   2.4388 H              1 <1>                0.0000
     23 H23         -0.6102   3.2857   2.4128 H              1 <1>                0.0000
     24 H24         -2.1547   3.2848   1.5282 H              1 <1>                0.0000
     25 H25         -0.0775   3.8215  -0.3085 H              1 <1>                0.0000
     26 H26          0.6431   3.3513  -1.9748 H              1 <1>                0.0000
     27 H27          1.8034   2.4663  -3.9808 H              1 <1>                0.0000
     28 H28          2.1686   0.0458  -4.2015 H              1 <1>                0.0000
     29 H29         -1.5702  -1.3520  -1.3601 H              1 <1>                0.0000
     30 H30         -0.2081  -2.4429  -1.7129 H              1 <1>                0.0000
     31 H31         -1.7137  -2.2627   0.9365 H              1 <1>                0.0000
     32 H32         -1.8760  -3.5635  -0.2675 H              1 <1>                0.0000
     33 H33         -1.1777  -5.1812   1.3500 H              1 <1>                0.0000
     34 H34          0.3536  -4.9600   2.2300 H              1 <1>                0.0000
     35 H35         -1.0295  -3.8918   2.5682 H              1 <1>                0.0000
     36 H36          0.3407  -1.9672   2.1163 H              1 <1>                0.0000
     37 H37          1.7199  -3.0463   1.7975 H              1 <1>                0.0000
     38 H38          1.9083  -2.1385  -0.4975 H              1 <1>                0.0000
     39 H39          2.0310  -0.8340   0.7079 H              1 <1>                0.0000
@<TRIPOS>BOND
    1    1    2 1     
    2    1   20 1     
    3    1   21 1     
    4    1   22 1     
    5    2    3 1     
    6    2   23 1     
    7    2   24 1     
    8    3    4 am    
    9    3   25 1     
   10    4    5 2     
   11    4    6 1     
   12    6   11 ar    
   13    6    7 ar    
   14    7    8 ar    
   15    7   26 1     
   16    8    9 ar    
   17    8   27 1     
   18    9   10 ar    
   19    9   28 1     
   20   10   11 ar    
   21   11   12 1     
   22   12   19 1     
   23   12   13 1     
   24   13   14 1     
   25   13   29 1     
   26   13   30 1     
   27   14   15 1     
   28   14   31 1     
   29   14   32 1     
   30   15   16 1     
   31   15   17 1     
   32   15   18 1     
   33   17   33 1     
   34   17   34 1     
   35   17   35 1     
   36   18   19 1     
   37   18   36 1     
   38   18   37 1     
   39   19   38 1     
   40   19   39 1     
@<TRIPOS>SUBSTRUCTURE
      1 ****           1
@<TRIPOS>SET
DONOR_HYDROGENS      STATIC     ATOMS    <user>   **** ""
2 25 16
ATOM$RED        STATIC     ATOMS    COLORGROUP SYSTEM
2 25 16
