#       Name:                RNN
#       Creating user name   gbret
#       Creation time:       Fri Sep  9 15:37:13 2016


#       File generated by GOLD software.
#

@<TRIPOS>MOLECULE
RNN
    52    52     1
SMALL
NO_CHARGES


@<TRIPOS>ATOM
      1 C1           0.8170   2.2289  -5.7373 C.3            1 <1>                0.0000
      2 C2          -0.0037   3.0340  -4.7278 C.3            1 <1>                0.0000
      3 C3           0.1301   4.5265  -5.0365 C.3            1 <1>                0.0000
      4 S4          -1.7475   2.5470  -4.8408 S.o2           1 <1>                0.0000
      5 O5          -2.4924   3.1086  -3.7689 O.2            1 <1>                0.0000
      6 O6          -2.2065   2.6444  -6.1821 O.2            1 <1>                0.0000
      7 N7          -1.7436   0.9209  -4.5276 N.pl3          1 <1>                0.0000
      8 C8          -1.3148   0.4287  -3.2161 C.3            1 <1>                0.0000
      9 C9          -1.7378  -1.0330  -3.0567 C.3            1 <1>                0.0000
     10 C10         -1.2968  -1.5394  -1.7076 C.ar           1 <1>                0.0000
     11 C11         -0.0507  -2.1196  -1.5608 C.ar           1 <1>                0.0000
     12 C12          0.3539  -2.5842  -0.3233 C.ar           1 <1>                0.0000
     13 C13         -0.4873  -2.4681   0.7674 C.ar           1 <1>                0.0000
     14 C14         -0.0464  -2.9749   2.1164 C.3            1 <1>                0.0000
     15 C15          0.6700  -1.8546   2.8730 C.3            1 <1>                0.0000
     16 N16          1.0986  -2.3473   4.1844 N.pl3          1 <1>                0.0000
     17 S17          2.2091  -1.4932   5.0673 S.o2           1 <1>                0.0000
     18 O18          2.3953  -2.2704   6.2423 O.2            1 <1>                0.0000
     19 O19          3.2798  -1.2683   4.1604 O.2            1 <1>                0.0000
     20 C20          1.3709   0.0664   5.4619 C.3            1 <1>                0.0000
     21 C21          0.1033  -0.2255   6.2673 C.3            1 <1>                0.0000
     22 C22          2.3060   0.9536   6.2862 C.3            1 <1>                0.0000
     23 C23         -1.7329  -1.8867   0.6209 C.ar           1 <1>                0.0000
     24 C24         -2.1360  -1.4187  -0.6158 C.ar           1 <1>                0.0000
     25 H25          1.8648   2.5214  -5.6695 H              1 <1>                0.0000
     26 H26          0.7217   1.1655  -5.5175 H              1 <1>                0.0000
     27 H27          0.4492   2.4261  -6.7443 H              1 <1>                0.0000
     28 H28          0.3641   2.8368  -3.7209 H              1 <1>                0.0000
     29 H29         -0.5215   5.0947  -4.3725 H              1 <1>                0.0000
     30 H30          1.1637   4.8377  -4.8850 H              1 <1>                0.0000
     31 H31         -0.1567   4.7106  -6.0718 H              1 <1>                0.0000
     32 H32         -2.0252   0.2944  -5.2124 H              1 <1>                0.0000
     33 H33         -0.2303   0.5037  -3.1366 H              1 <1>                0.0000
     34 H34         -1.7788   1.0286  -2.4333 H              1 <1>                0.0000
     35 H35         -2.8224  -1.1081  -3.1362 H              1 <1>                0.0000
     36 H36         -1.2738  -1.6330  -3.8395 H              1 <1>                0.0000
     37 H37          0.6066  -2.2103  -2.4129 H              1 <1>                0.0000
     38 H38          1.3272  -3.0381  -0.2087 H              1 <1>                0.0000
     39 H39         -0.9179  -3.2982   2.6857 H              1 <1>                0.0000
     40 H40          0.6336  -3.8164   1.9839 H              1 <1>                0.0000
     41 H41          1.5415  -1.5313   2.3037 H              1 <1>                0.0000
     42 H42         -0.0100  -1.0130   3.0055 H              1 <1>                0.0000
     43 H43          0.7319  -3.1738   4.5355 H              1 <1>                0.0000
     44 H44          1.1042   0.5794   4.5379 H              1 <1>                0.0000
     45 H45          0.3700  -0.7385   7.1913 H              1 <1>                0.0000
     46 H46         -0.4004   0.7117   6.5044 H              1 <1>                0.0000
     47 H47         -0.5629  -0.8575   5.6801 H              1 <1>                0.0000
     48 H48          3.2091   1.1615   5.7123 H              1 <1>                0.0000
     49 H49          1.8023   1.8907   6.5232 H              1 <1>                0.0000
     50 H50          2.5727   0.4406   7.2102 H              1 <1>                0.0000
     51 H51         -2.3900  -1.7957   1.4731 H              1 <1>                0.0000
     52 H52         -3.1091  -0.9644  -0.7304 H              1 <1>                0.0000
@<TRIPOS>BOND
    1    1    2 1     
    2    1   25 1     
    3    1   26 1     
    4    1   27 1     
    5    2    3 1     
    6    2    4 1     
    7    2   28 1     
    8    3   29 1     
    9    3   30 1     
   10    3   31 1     
   11    4    5 2     
   12    4    6 2     
   13    4    7 1     
   14    7    8 1     
   15    7   32 1     
   16    8    9 1     
   17    8   33 1     
   18    8   34 1     
   19    9   10 1     
   20    9   35 1     
   21    9   36 1     
   22   10   24 ar    
   23   10   11 ar    
   24   11   12 ar    
   25   11   37 1     
   26   12   13 ar    
   27   12   38 1     
   28   13   14 1     
   29   13   23 ar    
   30   14   15 1     
   31   14   39 1     
   32   14   40 1     
   33   15   16 1     
   34   15   41 1     
   35   15   42 1     
   36   16   17 1     
   37   16   43 1     
   38   17   18 2     
   39   17   19 2     
   40   17   20 1     
   41   20   21 1     
   42   20   22 1     
   43   20   44 1     
   44   21   45 1     
   45   21   46 1     
   46   21   47 1     
   47   22   48 1     
   48   22   49 1     
   49   22   50 1     
   50   23   24 ar    
   51   23   51 1     
   52   24   52 1     
@<TRIPOS>SUBSTRUCTURE
      1 ****           1
@<TRIPOS>SET
DONOR_HYDROGENS      STATIC     ATOMS    <user>   **** ""
2 32 43
ATOM$RED        STATIC     ATOMS    COLORGROUP SYSTEM
2 32 43
