#       Name:                ROD
#       Creating user name   gbret
#       Creation time:       Fri Sep  9 15:38:40 2016


#       File generated by GOLD software.
#

@<TRIPOS>MOLECULE
ROD
    33    34     1
SMALL
NO_CHARGES


@<TRIPOS>ATOM
      1 O1          -2.5322   0.2020  -0.6420 O.co2          1 <1>                0.0000
      2 C2          -2.7088   1.4103  -0.6915 C.2            1 <1>                0.0000
      3 O3          -3.8407   1.8585  -0.7986 O.co2          1 <1>                0.0000
      4 C4          -1.5508   2.3322  -0.6157 C.2            1 <1>                0.0000
      5 N5          -1.7500   3.6943  -0.5323 N.am           1 <1>                0.0000
      6 H6          -2.6550   4.0435  -0.5237 H              1 <1>                0.0000
      7 C7          -0.7139   4.5462  -0.4623 C.2            1 <1>                0.0000
      8 O8          -0.9334   5.7398  -0.3894 O.2            1 <1>                0.0000
      9 N9           0.5595   4.1147  -0.4700 N.am           1 <1>                0.0000
     10 H10          1.2858   4.7555  -0.4182 H              1 <1>                0.0000
     11 C11          0.8335   2.7959  -0.5491 C.2            1 <1>                0.0000
     12 O12          1.9845   2.4021  -0.5556 O.2            1 <1>                0.0000
     13 C13         -0.2839   1.8430  -0.6220 C.2            1 <1>                0.0000
     14 C14         -0.0294   0.3603  -0.7110 C.3            1 <1>                0.0000
     15 C15          0.0493  -0.2292   0.6987 C.3            1 <1>                0.0000
     16 C16          0.1445  -1.7306   0.6107 C.ar           1 <1>                0.0000
     17 C17         -1.0063  -2.4968   0.6022 C.ar           1 <1>                0.0000
     18 C18         -0.9190  -3.8738   0.5215 C.ar           1 <1>                0.0000
     19 C19          0.3190  -4.4850   0.4489 C.ar           1 <1>                0.0000
     20 C20          1.4694  -3.7190   0.4566 C.ar           1 <1>                0.0000
     21 C21          1.3820  -2.3413   0.5329 C.ar           1 <1>                0.0000
     22 C22          2.6363  -1.5060   0.5413 C.3            1 <1>                0.0000
     23 F23          3.7551  -2.3451   0.5764 F              1 <1>                0.0000
     24 F24          2.6799  -0.7187  -0.6144 F              1 <1>                0.0000
     25 F25          2.6382  -0.6787   1.6695 F              1 <1>                0.0000
     26 H26         -0.8426  -0.1157  -1.2590 H              1 <1>                0.0000
     27 H27          0.9118   0.1838  -1.2317 H              1 <1>                0.0000
     28 H28          0.9307   0.1616   1.2072 H              1 <1>                0.0000
     29 H29         -0.8448   0.0461   1.2580 H              1 <1>                0.0000
     30 H30         -1.9734  -2.0194   0.6588 H              1 <1>                0.0000
     31 H31         -1.8180  -4.4724   0.5155 H              1 <1>                0.0000
     32 H32          0.3872  -5.5611   0.3866 H              1 <1>                0.0000
     33 H33          2.4365  -4.1964   0.4002 H              1 <1>                0.0000
@<TRIPOS>BOND
    1    1    2 ar    
    2    2    3 ar    
    3    2    4 1     
    4    4   13 2     
    5    4    5 1     
    6    5    6 1     
    7    5    7 1     
    8    7    8 2     
    9    7    9 1     
   10    9   10 1     
   11    9   11 1     
   12   11   12 2     
   13   11   13 1     
   14   13   14 1     
   15   14   15 1     
   16   14   26 1     
   17   14   27 1     
   18   15   16 1     
   19   15   28 1     
   20   15   29 1     
   21   16   21 ar    
   22   16   17 ar    
   23   17   18 ar    
   24   17   30 1     
   25   18   19 ar    
   26   18   31 1     
   27   19   20 ar    
   28   19   32 1     
   29   20   21 ar    
   30   20   33 1     
   31   21   22 1     
   32   22   23 1     
   33   22   24 1     
   34   22   25 1     
@<TRIPOS>SUBSTRUCTURE
      1 ****           1
@<TRIPOS>SET
DONOR_HYDROGENS      STATIC     ATOMS    <user>   **** ""
2 6 10
ATOM$RED        STATIC     ATOMS    COLORGROUP SYSTEM
2 6 10
