#       Name:                RQX
#       Creating user name   gbret
#       Creation time:       Fri Sep  9 15:41:17 2016


#       File generated by GOLD software.
#

@<TRIPOS>MOLECULE
RQX
    41    41     1
SMALL
NO_CHARGES


@<TRIPOS>ATOM
      1 C1          -1.1825   4.7515   0.6740 C.3            1 <1>                0.0000
      2 C2          -1.2595   3.2257   0.7554 C.3            1 <1>                0.0000
      3 C3          -0.6652   2.7552   2.0844 C.3            1 <1>                0.0000
      4 C4          -0.7410   1.2522   2.1646 C.2            1 <1>                0.0000
      5 C5          -1.9999   0.5865   2.6575 C.3            1 <1>                0.0000
      6 C6           0.2874   0.5244   1.8057 C.2            1 <1>                0.0000
      7 C7           0.1708  -0.9775   1.7669 C.3            1 <1>                0.0000
      8 C8           0.5585  -1.4763   0.3987 C.2            1 <1>                0.0000
      9 C9           1.8106  -1.8925   0.1675 C.2            1 <1>                0.0000
     10 C10          2.8298  -1.8610   1.2772 C.3            1 <1>                0.0000
     11 C11          2.1954  -2.3832  -1.1735 C.2            1 <1>                0.0000
     12 O12          3.3328  -2.7600  -1.3777 O.2            1 <1>                0.0000
     13 C13          1.2074  -2.4167  -2.2580 C.2            1 <1>                0.0000
     14 N14          1.5750  -2.8813  -3.5243 N.4            1 <1>                0.0000
     15 H15          2.5656  -3.0729  -3.5378 H              1 <1>                0.0000
     16 H16          1.0660  -3.7271  -3.7331 H              1 <1>                0.0000
     17 H17          1.3588  -2.1792  -4.2160 H              1 <1>                0.0000
     18 C18         -0.0559  -1.9996  -2.0330 C.2            1 <1>                0.0000
     19 O19         -0.9688  -2.0302  -3.0318 O.3            1 <1>                0.0000
     20 C20         -1.4637  -0.7729  -3.4971 C.3            1 <1>                0.0000
     21 C21         -0.4432  -1.5119  -0.6853 C.2            1 <1>                0.0000
     22 O22         -1.5783  -1.1356  -0.4775 O.2            1 <1>                0.0000
     23 H23         -0.1410   5.0667   0.7381 H              1 <1>                0.0000
     24 H24         -1.6059   5.0867  -0.2728 H              1 <1>                0.0000
     25 H25         -1.7457   5.1883   1.4987 H              1 <1>                0.0000
     26 H26         -2.3009   2.9105   0.6912 H              1 <1>                0.0000
     27 H27         -0.6962   2.7889  -0.0693 H              1 <1>                0.0000
     28 H28          0.3763   3.0704   2.1486 H              1 <1>                0.0000
     29 H29         -1.2284   3.1919   2.9091 H              1 <1>                0.0000
     30 H30         -2.7059   1.3467   2.9918 H              1 <1>                0.0000
     31 H31         -2.4454   0.0075   1.8486 H              1 <1>                0.0000
     32 H32         -1.7589  -0.0762   3.4887 H              1 <1>                0.0000
     33 H33          1.2189   1.0008   1.5377 H              1 <1>                0.0000
     34 H34          0.8344  -1.4130   2.5139 H              1 <1>                0.0000
     35 H35         -0.8578  -1.2677   1.9814 H              1 <1>                0.0000
     36 H36          2.8085  -2.8078   1.8169 H              1 <1>                0.0000
     37 H37          3.8224  -1.7060   0.8545 H              1 <1>                0.0000
     38 H38          2.5955  -1.0466   1.9627 H              1 <1>                0.0000
     39 H39         -2.2486  -0.9418  -4.2343 H              1 <1>                0.0000
     40 H40         -1.8693  -0.2088  -2.6572 H              1 <1>                0.0000
     41 H41         -0.6507  -0.2092  -3.9546 H              1 <1>                0.0000
@<TRIPOS>BOND
    1    1    2 1     
    2    1   23 1     
    3    1   24 1     
    4    1   25 1     
    5    2    3 1     
    6    2   26 1     
    7    2   27 1     
    8    3    4 1     
    9    3   28 1     
   10    3   29 1     
   11    4    5 1     
   12    4    6 2     
   13    5   30 1     
   14    5   31 1     
   15    5   32 1     
   16    6    7 1     
   17    6   33 1     
   18    7    8 1     
   19    7   34 1     
   20    7   35 1     
   21    8   21 1     
   22    8    9 2     
   23    9   10 1     
   24    9   11 1     
   25   10   36 1     
   26   10   37 1     
   27   10   38 1     
   28   11   12 2     
   29   11   13 1     
   30   13   14 1     
   31   13   18 2     
   32   14   15 1     
   33   14   16 1     
   34   14   17 1     
   35   18   19 1     
   36   18   21 1     
   37   19   20 1     
   38   20   39 1     
   39   20   40 1     
   40   20   41 1     
   41   21   22 2     
@<TRIPOS>SUBSTRUCTURE
      1 ****           1
@<TRIPOS>SET
DONOR_HYDROGENS      STATIC     ATOMS    <user>   **** ""
3 15 16 17
ATOM$RED        STATIC     ATOMS    COLORGROUP SYSTEM
3 15 16 17
