#       Name:                RR8
#       Creating user name   gbret
#       Creation time:       Fri Sep  9 15:41:32 2016


#       File generated by GOLD software.
#

@<TRIPOS>MOLECULE
RR8
    58    61     1
SMALL
NO_CHARGES


@<TRIPOS>ATOM
      1 C1          -0.1013   5.7682   4.2578 C.3            1 <1>                0.0000
      2 S2          -0.6296   4.0330   4.2771 S.o2           1 <1>                0.0000
      3 O3           0.0157   3.3270   5.3281 O.2            1 <1>                0.0000
      4 O4          -2.0342   3.9372   4.0846 O.2            1 <1>                0.0000
      5 N5           0.0169   3.3888   2.8953 N.pl3          1 <1>                0.0000
      6 C6          -0.6378   3.3558   1.5748 C.3            1 <1>                0.0000
      7 C7           0.5264   3.2582   0.5574 C.3            1 <1>                0.0000
      8 C8           1.5200   2.3333   1.3088 C.3            1 <1>                0.0000
      9 C9           1.3413   2.7608   2.7808 C.3            1 <1>                0.0000
     10 C10          1.1476   0.8853   1.1200 C.2            1 <1>                0.0000
     11 O11          0.0396   0.4990   1.4273 O.2            1 <1>                0.0000
     12 N12          2.0456   0.0196   0.6096 N.am           1 <1>                0.0000
     13 C13          1.6686  -1.3024   0.3388 C.ar           1 <1>                0.0000
     14 C14          0.6535  -1.8995   1.0740 C.ar           1 <1>                0.0000
     15 C15          0.2815  -3.2017   0.8072 C.ar           1 <1>                0.0000
     16 C16          0.9225  -3.9162  -0.1968 C.ar           1 <1>                0.0000
     17 C17          1.9382  -3.3206  -0.9333 C.ar           1 <1>                0.0000
     18 C18          2.3073  -2.0149  -0.6706 C.ar           1 <1>                0.0000
     19 F19          3.2952  -1.4347  -1.3865 F              1 <1>                0.0000
     20 N20          0.5448  -5.2379  -0.4661 N.am           1 <1>                0.0000
     21 C21          1.3968  -6.2543  -0.1683 C.2            1 <1>                0.0000
     22 C22          1.0535  -7.5393  -0.4196 C.2            1 <1>                0.0000
     23 C23         -0.1923  -7.8315  -0.9923 C.2            1 <1>                0.0000
     24 C24         -1.0461  -6.8097  -1.2900 C.2            1 <1>                0.0000
     25 C25         -0.6605  -5.4879  -1.0120 C.2            1 <1>                0.0000
     26 O26         -1.4152  -4.5646  -1.2731 O.2            1 <1>                0.0000
     27 C27          0.0667   2.6244  -0.7302 C.2            1 <1>                0.0000
     28 O28          0.7284   1.7478  -1.2447 O.2            1 <1>                0.0000
     29 N29         -1.0798   3.0316  -1.3101 N.am           1 <1>                0.0000
     30 C30         -1.5543   2.3814  -2.4552 C.ar           1 <1>                0.0000
     31 C31         -2.9196   2.2102  -2.6423 C.ar           1 <1>                0.0000
     32 C32         -3.3852   1.5682  -3.7731 C.ar           1 <1>                0.0000
     33 C33         -2.4925   1.0955  -4.7189 C.ar           1 <1>                0.0000
     34 Cl34        -3.0810   0.2890  -6.1391 Cl             1 <1>                0.0000
     35 C35         -1.1315   1.2649  -4.5348 C.ar           1 <1>                0.0000
     36 C36         -0.6609   1.9116  -3.4088 C.ar           1 <1>                0.0000
     37 H37          0.9876   5.8165   4.2571 H              1 <1>                0.0000
     38 H38         -0.4872   6.2556   3.3625 H              1 <1>                0.0000
     39 H39         -0.4869   6.2753   5.1423 H              1 <1>                0.0000
     40 H40         -1.2860   2.4832   1.4944 H              1 <1>                0.0000
     41 H41         -1.2086   4.2699   1.4114 H              1 <1>                0.0000
     42 H42          0.9674   4.2378   0.3732 H              1 <1>                0.0000
     43 H43          2.5424   2.5159   0.9780 H              1 <1>                0.0000
     44 H44          2.1195   3.4722   3.0573 H              1 <1>                0.0000
     45 H45          1.3885   1.8860   3.4293 H              1 <1>                0.0000
     46 H46          2.9529   0.3117   0.4297 H              1 <1>                0.0000
     47 H47          0.1550  -1.3450   1.8553 H              1 <1>                0.0000
     48 H48         -0.5082  -3.6655   1.3796 H              1 <1>                0.0000
     49 H49          2.4366  -3.8762  -1.7139 H              1 <1>                0.0000
     50 H50          2.3576  -6.0343   0.2730 H              1 <1>                0.0000
     51 H51          1.7388  -8.3387  -0.1794 H              1 <1>                0.0000
     52 H52         -0.4730  -8.8543  -1.1960 H              1 <1>                0.0000
     53 H53         -2.0100  -7.0153  -1.7315 H              1 <1>                0.0000
     54 H54         -1.5760   3.7753  -0.9339 H              1 <1>                0.0000
     55 H55         -3.6167   2.5783  -1.9041 H              1 <1>                0.0000
     56 H56         -4.4469   1.4348  -3.9191 H              1 <1>                0.0000
     57 H57         -0.4368   0.8950  -5.2744 H              1 <1>                0.0000
     58 H58          0.4014   2.0438  -3.2658 H              1 <1>                0.0000
@<TRIPOS>BOND
    1    1    2 1     
    2    1   37 1     
    3    1   38 1     
    4    1   39 1     
    5    2    3 2     
    6    2    4 2     
    7    2    5 1     
    8    5    9 1     
    9    5    6 1     
   10    6    7 1     
   11    6   40 1     
   12    6   41 1     
   13    7    8 1     
   14    7   27 1     
   15    7   42 1     
   16    8    9 1     
   17    8   10 1     
   18    8   43 1     
   19    9   44 1     
   20    9   45 1     
   21   10   11 2     
   22   10   12 am    
   23   12   13 1     
   24   12   46 1     
   25   13   18 ar    
   26   13   14 ar    
   27   14   15 ar    
   28   14   47 1     
   29   15   16 ar    
   30   15   48 1     
   31   16   17 ar    
   32   16   20 1     
   33   17   18 ar    
   34   17   49 1     
   35   18   19 1     
   36   20   25 am    
   37   20   21 1     
   38   21   22 2     
   39   21   50 1     
   40   22   23 1     
   41   22   51 1     
   42   23   24 2     
   43   23   52 1     
   44   24   25 1     
   45   24   53 1     
   46   25   26 2     
   47   27   28 2     
   48   27   29 am    
   49   29   30 1     
   50   29   54 1     
   51   30   36 ar    
   52   30   31 ar    
   53   31   32 ar    
   54   31   55 1     
   55   32   33 ar    
   56   32   56 1     
   57   33   34 1     
   58   33   35 ar    
   59   35   36 ar    
   60   35   57 1     
   61   36   58 1     
@<TRIPOS>SUBSTRUCTURE
      1 ****           1
@<TRIPOS>SET
DONOR_HYDROGENS      STATIC     ATOMS    <user>   **** ""
2 46 54
ATOM$RED        STATIC     ATOMS    COLORGROUP SYSTEM
2 46 54
