#       Name:                RS7
#       Creating user name   gbret
#       Creation time:       Fri Sep  9 15:42:37 2016


#       File generated by GOLD software.
#

@<TRIPOS>MOLECULE
RS7
    38    38     1
SMALL
NO_CHARGES


@<TRIPOS>ATOM
      1 C1           4.0728   5.6284  -0.0114 C.3            1 <1>                0.0000
      2 C2           4.0936   4.0985  -0.0198 C.3            1 <1>                0.0000
      3 C3           2.6582   3.5690  -0.0089 C.3            1 <1>                0.0000
      4 C4           2.6789   2.0391  -0.0173 C.3            1 <1>                0.0000
      5 C5           1.2436   1.5095  -0.0065 C.3            1 <1>                0.0000
      6 C6           1.2643  -0.0203  -0.0149 C.3            1 <1>                0.0000
      7 C7          -0.1167  -0.5298  -0.0044 C.1            1 <1>                0.0000
      8 C8          -1.2181  -0.9362   0.0039 C.1            1 <1>                0.0000
      9 C9          -2.5615  -1.4318   0.0141 C.ar           1 <1>                0.0000
     10 C10         -3.6371  -0.5449   0.0233 C.ar           1 <1>                0.0000
     11 C11         -4.9297  -1.0274   0.0326 C.ar           1 <1>                0.0000
     12 C12         -5.1719  -2.3925   0.0329 C.ar           1 <1>                0.0000
     13 C13         -4.1249  -3.2885   0.0243 C.ar           1 <1>                0.0000
     14 C14         -2.8065  -2.8218   0.0089 C.ar           1 <1>                0.0000
     15 C15         -1.6865  -3.7700  -0.0007 C.2            1 <1>                0.0000
     16 C16         -1.9273  -5.1019   0.0053 C.2            1 <1>                0.0000
     17 C17         -0.8479  -6.0158  -0.0040 C.2            1 <1>                0.0000
     18 O18          0.3052  -5.6018  -0.0175 O.co2          1 <1>                0.0000
     19 O19         -1.0659  -7.2214   0.0014 O.co2          1 <1>                0.0000
     20 H20          5.0954   6.0057  -0.0191 H              1 <1>                0.0000
     21 H21          3.5456   5.9894  -0.8944 H              1 <1>                0.0000
     22 H22          3.5626   5.9799   0.8854 H              1 <1>                0.0000
     23 H23          4.6038   3.7470  -0.9166 H              1 <1>                0.0000
     24 H24          4.6208   3.7375   0.8633 H              1 <1>                0.0000
     25 H25          2.1480   3.9205   0.8879 H              1 <1>                0.0000
     26 H26          2.1310   3.9300  -0.8920 H              1 <1>                0.0000
     27 H27          3.1891   1.6876  -0.9141 H              1 <1>                0.0000
     28 H28          3.2061   1.6780   0.8657 H              1 <1>                0.0000
     29 H29          0.7334   1.8611   0.8903 H              1 <1>                0.0000
     30 H30          0.7164   1.8706  -0.8895 H              1 <1>                0.0000
     31 H31          1.7745  -0.3718  -0.9117 H              1 <1>                0.0000
     32 H32          1.7915  -0.3814   0.8682 H              1 <1>                0.0000
     33 H33         -3.4585   0.5202   0.0235 H              1 <1>                0.0000
     34 H34         -5.7594  -0.3361   0.0400 H              1 <1>                0.0000
     35 H35         -6.1887  -2.7565   0.0402 H              1 <1>                0.0000
     36 H36         -4.3223  -4.3503   0.0253 H              1 <1>                0.0000
     37 H37         -0.6701  -3.4051  -0.0126 H              1 <1>                0.0000
     38 H38         -2.9437  -5.4669   0.0172 H              1 <1>                0.0000
@<TRIPOS>BOND
    1    1    2 1     
    2    1   20 1     
    3    1   21 1     
    4    1   22 1     
    5    2    3 1     
    6    2   23 1     
    7    2   24 1     
    8    3    4 1     
    9    3   25 1     
   10    3   26 1     
   11    4    5 1     
   12    4   27 1     
   13    4   28 1     
   14    5    6 1     
   15    5   29 1     
   16    5   30 1     
   17    6    7 1     
   18    6   31 1     
   19    6   32 1     
   20    7    8 3     
   21    8    9 1     
   22    9   14 ar    
   23    9   10 ar    
   24   10   11 ar    
   25   10   33 1     
   26   11   12 ar    
   27   11   34 1     
   28   12   13 ar    
   29   12   35 1     
   30   13   14 ar    
   31   13   36 1     
   32   14   15 1     
   33   15   16 2     
   34   15   37 1     
   35   16   17 1     
   36   16   38 1     
   37   17   18 ar    
   38   17   19 ar    
@<TRIPOS>SUBSTRUCTURE
      1 ****           1
