#       Name:                RTX
#       Creating user name   gbret
#       Creation time:       Fri Sep  9 15:44:43 2016


#       File generated by GOLD software.
#

@<TRIPOS>MOLECULE
RTX
    50    52     1
SMALL
NO_CHARGES


@<TRIPOS>ATOM
      1 C1           0.6867   5.6232   0.3787 C.3            1 <1>                0.0000
      2 C2           0.7660   4.1353   0.7261 C.3            1 <1>                0.0000
      3 N3           1.5123   3.4268  -0.3223 N.4            1 <1>                0.0000
      4 H4           1.0870   3.6085  -1.2191 H              1 <1>                0.0000
      5 C5           2.9038   3.8974  -0.3360 C.3            1 <1>                0.0000
      6 C6           3.6390   3.2809  -1.5278 C.3            1 <1>                0.0000
      7 C7           1.4862   1.9832  -0.0514 C.3            1 <1>                0.0000
      8 C8           0.0499   1.4686  -0.1664 C.3            1 <1>                0.0000
      9 C9           0.0379  -0.0520   0.0027 C.3            1 <1>                0.0000
     10 C10         -1.3983  -0.5666  -0.1123 C.3            1 <1>                0.0000
     11 N11         -1.4098  -2.0225   0.0496 N.pl3          1 <1>                0.0000
     12 C12         -1.2670  -2.8776  -1.0558 C.ar           1 <1>                0.0000
     13 C13         -1.4003  -2.3892  -2.3439 C.ar           1 <1>                0.0000
     14 C14         -1.2596  -3.2451  -3.4225 C.ar           1 <1>                0.0000
     15 C15         -0.9873  -4.5837  -3.2127 C.ar           1 <1>                0.0000
     16 C16         -0.8529  -5.0760  -1.9268 C.ar           1 <1>                0.0000
     17 C17         -0.9904  -4.2263  -0.8411 C.ar           1 <1>                0.0000
     18 O18         -0.8533  -4.7090   0.4207 O.3            1 <1>                0.0000
     19 C19         -1.2806  -3.9661   1.4744 C.ar           1 <1>                0.0000
     20 C20         -1.4384  -4.5552   2.7184 C.ar           1 <1>                0.0000
     21 C21         -1.8695  -3.7987   3.7934 C.ar           1 <1>                0.0000
     22 C22         -2.1452  -2.4528   3.6340 C.ar           1 <1>                0.0000
     23 Cl23        -2.6834  -1.5108   4.9892 Cl             1 <1>                0.0000
     24 C24         -1.9917  -1.8563   2.3936 C.ar           1 <1>                0.0000
     25 C25         -1.5582  -2.6115   1.3164 C.ar           1 <1>                0.0000
     26 H26          0.1330   6.1489   1.1566 H              1 <1>                0.0000
     27 H27          1.6939   6.0342   0.3087 H              1 <1>                0.0000
     28 H28          0.1768   5.7466  -0.5768 H              1 <1>                0.0000
     29 H29          1.2759   4.0119   1.6815 H              1 <1>                0.0000
     30 H30         -0.2411   3.7244   0.7960 H              1 <1>                0.0000
     31 H31          2.9191   4.9839  -0.4221 H              1 <1>                0.0000
     32 H32          3.3973   3.5993   0.5891 H              1 <1>                0.0000
     33 H33          4.6817   3.5983  -1.5152 H              1 <1>                0.0000
     34 H34          3.5893   2.1940  -1.4626 H              1 <1>                0.0000
     35 H35          3.1698   3.6112  -2.4545 H              1 <1>                0.0000
     36 H36          2.1164   1.4663  -0.7751 H              1 <1>                0.0000
     37 H37          1.8599   1.7956   0.9552 H              1 <1>                0.0000
     38 H38         -0.5630   1.9255   0.6105 H              1 <1>                0.0000
     39 H39         -0.3518   1.7284  -1.1458 H              1 <1>                0.0000
     40 H40          0.6509  -0.5088  -0.7743 H              1 <1>                0.0000
     41 H41          0.4396  -0.3118   0.9821 H              1 <1>                0.0000
     42 H42         -2.0113  -0.1097   0.6647 H              1 <1>                0.0000
     43 H43         -1.8000  -0.3068  -1.0917 H              1 <1>                0.0000
     44 H44         -1.6139  -1.3432  -2.5070 H              1 <1>                0.0000
     45 H45         -1.3631  -2.8667  -4.4287 H              1 <1>                0.0000
     46 H46         -0.8792  -5.2487  -4.0567 H              1 <1>                0.0000
     47 H47         -0.6408  -6.1232  -1.7692 H              1 <1>                0.0000
     48 H48         -1.2250  -5.6059   2.8489 H              1 <1>                0.0000
     49 H49         -1.9917  -4.2613   4.7617 H              1 <1>                0.0000
     50 H50         -2.2069  -0.8055   2.2676 H              1 <1>                0.0000
@<TRIPOS>BOND
    1    1    2 1     
    2    1   26 1     
    3    1   27 1     
    4    1   28 1     
    5    2    3 1     
    6    2   29 1     
    7    2   30 1     
    8    3    4 1     
    9    3    5 1     
   10    3    7 1     
   11    5    6 1     
   12    5   31 1     
   13    5   32 1     
   14    6   33 1     
   15    6   34 1     
   16    6   35 1     
   17    7    8 1     
   18    7   36 1     
   19    7   37 1     
   20    8    9 1     
   21    8   38 1     
   22    8   39 1     
   23    9   10 1     
   24    9   40 1     
   25    9   41 1     
   26   10   11 1     
   27   10   42 1     
   28   10   43 1     
   29   11   25 1     
   30   11   12 1     
   31   12   17 ar    
   32   12   13 ar    
   33   13   14 ar    
   34   13   44 1     
   35   14   15 ar    
   36   14   45 1     
   37   15   16 ar    
   38   15   46 1     
   39   16   17 ar    
   40   16   47 1     
   41   17   18 1     
   42   18   19 1     
   43   19   25 ar    
   44   19   20 ar    
   45   20   21 ar    
   46   20   48 1     
   47   21   22 ar    
   48   21   49 1     
   49   22   23 1     
   50   22   24 ar    
   51   24   25 ar    
   52   24   50 1     
@<TRIPOS>SUBSTRUCTURE
      1 ****           1
@<TRIPOS>SET
DONOR_HYDROGENS      STATIC     ATOMS    <user>   **** ""
1 4
ATOM$RED        STATIC     ATOMS    COLORGROUP SYSTEM
1 4
