#       Name:                RUN
#       Creating user name   gbret
#       Creation time:       Fri Sep  9 15:45:32 2016


#       File generated by GOLD software.
#

@<TRIPOS>MOLECULE
RUN
    94    97     1
SMALL
NO_CHARGES


@<TRIPOS>ATOM
      1 C1           1.4481   4.1184   3.2155 C.3            1 <1>                0.0000
      2 C2           2.2341   2.8063   3.1780 C.3            1 <1>                0.0000
      3 C3           2.8076   2.5155   4.5663 C.3            1 <1>                0.0000
      4 C4           1.3031   1.6658   2.7616 C.3            1 <1>                0.0000
      5 N5           0.1208   1.6599   3.6267 N.am           1 <1>                0.0000
      6 C6           0.1579   1.0235   4.8142 C.2            1 <1>                0.0000
      7 O7           1.1719   0.4545   5.1671 O.2            1 <1>                0.0000
      8 O8          -0.9286   1.0181   5.6093 O.3            1 <1>                0.0000
      9 C9          -0.8167   0.3129   6.8736 C.3            1 <1>                0.0000
     10 C10         -2.1206   0.4141   7.6223 C.ar           1 <1>                0.0000
     11 C11         -2.3402   1.4689   8.4884 C.ar           1 <1>                0.0000
     12 C12         -3.5363   1.5617   9.1752 C.ar           1 <1>                0.0000
     13 C13         -4.5129   0.6001   8.9956 C.ar           1 <1>                0.0000
     14 C14         -4.2937  -0.4542   8.1288 C.ar           1 <1>                0.0000
     15 C15         -3.0993  -0.5447   7.4388 C.ar           1 <1>                0.0000
     16 C16          0.8767   1.8628   1.3297 C.2            1 <1>                0.0000
     17 O17         -0.2114   2.3371   1.0807 O.2            1 <1>                0.0000
     18 N18          1.7045   1.5119   0.3257 N.am           1 <1>                0.0000
     19 C19          1.2443   1.5864  -1.0632 C.3            1 <1>                0.0000
     20 C20          2.0335   2.6672  -1.8047 C.3            1 <1>                0.0000
     21 C21          1.6929   4.0193  -1.2330 C.ar           1 <1>                0.0000
     22 C22          0.5498   4.6770  -1.6476 C.ar           1 <1>                0.0000
     23 C23          0.2374   5.9172  -1.1232 C.ar           1 <1>                0.0000
     24 C24          1.0676   6.4996  -0.1839 C.ar           1 <1>                0.0000
     25 C25          2.2102   5.8416   0.2313 C.ar           1 <1>                0.0000
     26 C26          2.5204   4.5994  -0.2899 C.ar           1 <1>                0.0000
     27 C27          1.4641   0.2352  -1.7464 C.3            1 <1>                0.0000
     28 O28          2.8553  -0.0900  -1.7225 O.3            1 <1>                0.0000
     29 C29          0.6748  -0.8456  -1.0049 C.3            1 <1>                0.0000
     30 C30          0.7375  -2.1548  -1.7941 C.3            1 <1>                0.0000
     31 C31          0.1338  -3.2843  -0.9571 C.3            1 <1>                0.0000
     32 C32          0.2467  -4.5841  -1.7114 C.ar           1 <1>                0.0000
     33 C33         -0.7673  -4.9788  -2.5640 C.ar           1 <1>                0.0000
     34 C34         -0.6638  -6.1710  -3.2558 C.ar           1 <1>                0.0000
     35 C35          0.4540  -6.9684  -3.0955 C.ar           1 <1>                0.0000
     36 C36          1.4684  -6.5733  -2.2435 C.ar           1 <1>                0.0000
     37 C37          1.3668  -5.3790  -1.5549 C.ar           1 <1>                0.0000
     38 C38         -0.0423  -2.0069  -3.0752 C.2            1 <1>                0.0000
     39 N39          0.2764  -2.5807  -4.2479 N.pl3          1 <1>                0.0000
     40 H40          1.0380  -3.1563  -4.4199 H              1 <1>                0.0000
     41 C41         -0.6870  -2.1962  -5.1637 C.2            1 <1>                0.0000
     42 C42         -1.5665  -1.3834  -4.4744 C.2            1 <1>                0.0000
     43 N43         -1.1379  -1.3042  -3.2162 N.pl3          1 <1>                0.0000
     44 H44         -1.5692  -0.7965  -2.5111 H              1 <1>                0.0000
     45 C45         -0.7572  -2.5611  -6.5288 C.2            1 <1>                0.0000
     46 O46          0.0897  -3.2877  -7.0074 O.2            1 <1>                0.0000
     47 C47         -1.8833  -2.0480  -7.3890 C.3            1 <1>                0.0000
     48 C48         -1.4404  -2.0332  -8.8534 C.3            1 <1>                0.0000
     49 C49         -3.1008  -2.9615  -7.2336 C.3            1 <1>                0.0000
     50 H50          2.1057   4.9269   3.5348 H              1 <1>                0.0000
     51 H51          1.0592   4.3376   2.2211 H              1 <1>                0.0000
     52 H52          0.6193   4.0256   3.9174 H              1 <1>                0.0000
     53 H53          3.0488   2.8913   2.4588 H              1 <1>                0.0000
     54 H54          1.9929   2.4305   5.2855 H              1 <1>                0.0000
     55 H55          3.3675   1.5807   4.5396 H              1 <1>                0.0000
     56 H56          3.4708   3.3280   4.8630 H              1 <1>                0.0000
     57 H57          1.8278   0.7152   2.8569 H              1 <1>                0.0000
     58 H58         -0.6886   2.1141   3.3450 H              1 <1>                0.0000
     59 H59         -0.5861  -0.7357   6.6856 H              1 <1>                0.0000
     60 H60         -0.0202   0.7590   7.4692 H              1 <1>                0.0000
     61 H61         -1.5772   2.2202   8.6288 H              1 <1>                0.0000
     62 H62         -3.7076   2.3854   9.8524 H              1 <1>                0.0000
     63 H63         -5.4471   0.6722   9.5327 H              1 <1>                0.0000
     64 H64         -5.0565  -1.2057   7.9887 H              1 <1>                0.0000
     65 H65         -2.9280  -1.3684   6.7616 H              1 <1>                0.0000
     66 H66          2.6051   1.2101   0.5226 H              1 <1>                0.0000
     67 H67          0.1831   1.8345  -1.0815 H              1 <1>                0.0000
     68 H68          3.1013   2.4819  -1.6880 H              1 <1>                0.0000
     69 H69          1.7744   2.6445  -2.8632 H              1 <1>                0.0000
     70 H70         -0.0988   4.2220  -2.3815 H              1 <1>                0.0000
     71 H71         -0.6553   6.4314  -1.4477 H              1 <1>                0.0000
     72 H72          0.8239   7.4689   0.2252 H              1 <1>                0.0000
     73 H73          2.8590   6.2968   0.9650 H              1 <1>                0.0000
     74 H74          3.4131   4.0853   0.0345 H              1 <1>                0.0000
     75 H75          1.1216   0.2906  -2.7798 H              1 <1>                0.0000
     76 H76          3.2286  -0.1561  -0.8328 H              1 <1>                0.0000
     77 H77          1.1068  -0.9967  -0.0156 H              1 <1>                0.0000
     78 H78         -0.3641  -0.5318  -0.9036 H              1 <1>                0.0000
     79 H79          1.7763  -2.3898  -2.0261 H              1 <1>                0.0000
     80 H80          0.6721  -3.3644  -0.0127 H              1 <1>                0.0000
     81 H81         -0.9163  -3.0689  -0.7596 H              1 <1>                0.0000
     82 H82         -1.6406  -4.3558  -2.6893 H              1 <1>                0.0000
     83 H83         -1.4563  -6.4797  -3.9214 H              1 <1>                0.0000
     84 H84          0.5345  -7.9002  -3.6355 H              1 <1>                0.0000
     85 H85          2.3415  -7.1964  -2.1180 H              1 <1>                0.0000
     86 H86          2.1593  -5.0703  -0.8893 H              1 <1>                0.0000
     87 H87         -2.4443  -0.9032  -4.8811 H              1 <1>                0.0000
     88 H88         -2.1458  -1.0367  -7.0786 H              1 <1>                0.0000
     89 H89         -1.1778  -3.0445  -9.1639 H              1 <1>                0.0000
     90 H90         -2.2548  -1.6620  -9.4756 H              1 <1>                0.0000
     91 H91         -0.5730  -1.3824  -8.9641 H              1 <1>                0.0000
     92 H92         -3.4163  -2.9720  -6.1903 H              1 <1>                0.0000
     93 H93         -3.9152  -2.5903  -7.8558 H              1 <1>                0.0000
     94 H94         -2.8382  -3.9728  -7.5441 H              1 <1>                0.0000
@<TRIPOS>BOND
    1    1    2 1     
    2    1   50 1     
    3    1   51 1     
    4    1   52 1     
    5    2    3 1     
    6    2    4 1     
    7    2   53 1     
    8    3   54 1     
    9    3   55 1     
   10    3   56 1     
   11    4    5 1     
   12    4   16 1     
   13    4   57 1     
   14    5    6 am    
   15    5   58 1     
   16    6    7 2     
   17    6    8 1     
   18    8    9 1     
   19    9   10 1     
   20    9   59 1     
   21    9   60 1     
   22   10   15 ar    
   23   10   11 ar    
   24   11   12 ar    
   25   11   61 1     
   26   12   13 ar    
   27   12   62 1     
   28   13   14 ar    
   29   13   63 1     
   30   14   15 ar    
   31   14   64 1     
   32   15   65 1     
   33   16   17 2     
   34   16   18 am    
   35   18   19 1     
   36   18   66 1     
   37   19   20 1     
   38   19   27 1     
   39   19   67 1     
   40   20   21 1     
   41   20   68 1     
   42   20   69 1     
   43   21   26 ar    
   44   21   22 ar    
   45   22   23 ar    
   46   22   70 1     
   47   23   24 ar    
   48   23   71 1     
   49   24   25 ar    
   50   24   72 1     
   51   25   26 ar    
   52   25   73 1     
   53   26   74 1     
   54   27   28 1     
   55   27   29 1     
   56   27   75 1     
   57   28   76 1     
   58   29   30 1     
   59   29   77 1     
   60   29   78 1     
   61   30   31 1     
   62   30   38 1     
   63   30   79 1     
   64   31   32 1     
   65   31   80 1     
   66   31   81 1     
   67   32   37 ar    
   68   32   33 ar    
   69   33   34 ar    
   70   33   82 1     
   71   34   35 ar    
   72   34   83 1     
   73   35   36 ar    
   74   35   84 1     
   75   36   37 ar    
   76   36   85 1     
   77   37   86 1     
   78   38   43 2     
   79   38   39 1     
   80   39   40 1     
   81   39   41 1     
   82   41   42 2     
   83   41   45 1     
   84   42   43 1     
   85   42   87 1     
   86   43   44 1     
   87   45   46 2     
   88   45   47 1     
   89   47   48 1     
   90   47   49 1     
   91   47   88 1     
   92   48   89 1     
   93   48   90 1     
   94   48   91 1     
   95   49   92 1     
   96   49   93 1     
   97   49   94 1     
@<TRIPOS>SUBSTRUCTURE
      1 ****           1
@<TRIPOS>SET
DONOR_HYDROGENS      STATIC     ATOMS    <user>   **** ""
5 58 66 76 40 44
ATOM$RED        STATIC     ATOMS    COLORGROUP SYSTEM
5 58 66 76 40 44
