#       Name:                S2A
#       Creating user name   gbret
#       Creation time:       Fri Sep  9 15:52:22 2016


#       File generated by GOLD software.
#

@<TRIPOS>MOLECULE
S2A
    74    80     1
SMALL
NO_CHARGES


@<TRIPOS>ATOM
      1 C1           0.6796  -1.5740  -2.0618 C.3            1 <1>                0.0000
      2 N2           1.8605  -2.4196  -1.8418 N.4            1 <1>                0.0000
      3 H3           1.6157  -3.1880  -1.2355 H              1 <1>                0.0000
      4 H4           2.1858  -2.7797  -2.7265 H              1 <1>                0.0000
      5 C5           2.9242  -1.6222  -1.2168 C.3            1 <1>                0.0000
      6 C6           2.5143  -1.2521   0.2111 C.3            1 <1>                0.0000
      7 O7           1.2777  -0.5365   0.1815 O.3            1 <1>                0.0000
      8 C8           0.9128   0.0445   1.4338 C.3            1 <1>                0.0000
      9 C9           1.5194   1.4490   1.5803 C.3            1 <1>                0.0000
     10 C10          2.2694   1.8066   0.3191 C.2            1 <1>                0.0000
     11 C11          1.6539   2.7325  -0.3651 C.2            1 <1>                0.0000
     12 C12          0.3815   3.1597   0.3031 C.3            1 <1>                0.0000
     13 C13          0.3007   2.3977   1.6318 C.3            1 <1>                0.0000
     14 C14         -0.9331   1.5299   1.6787 C.ar           1 <1>                0.0000
     15 C15         -2.2395   1.9000   1.8460 C.ar           1 <1>                0.0000
     16 C16         -3.2496   0.9278   1.8608 C.ar           1 <1>                0.0000
     17 C17         -4.5960   1.2729   2.0683 C.ar           1 <1>                0.0000
     18 C18         -5.5496   0.3028   2.0494 C.ar           1 <1>                0.0000
     19 C19         -5.2143  -1.0310   1.8284 C.ar           1 <1>                0.0000
     20 C20         -3.9192  -1.4048   1.6381 C.ar           1 <1>                0.0000
     21 C21         -2.9035  -0.4339   1.6694 C.ar           1 <1>                0.0000
     22 C22         -1.5518  -0.7803   1.5269 C.ar           1 <1>                0.0000
     23 C23         -0.5874   0.1892   1.5409 C.ar           1 <1>                0.0000
     24 C24          0.4996   4.6258   0.6563 C.2            1 <1>                0.0000
     25 O25          1.5499   5.0857   1.0497 O.2            1 <1>                0.0000
     26 C26         -0.6458   5.4355   0.5165 C.2            1 <1>                0.0000
     27 C27         -1.7536   4.9908  -0.1117 C.2            1 <1>                0.0000
     28 C28         -1.8319   3.6649  -0.7277 C.ar           1 <1>                0.0000
     29 C29         -2.9500   3.2998  -1.4880 C.ar           1 <1>                0.0000
     30 C30         -2.9960   2.0620  -2.0880 C.ar           1 <1>                0.0000
     31 C31         -1.9346   1.1750  -1.9474 C.ar           1 <1>                0.0000
     32 O32         -1.9803  -0.0387  -2.5526 O.3            1 <1>                0.0000
     33 C33         -3.1490  -0.3382  -3.3183 C.3            1 <1>                0.0000
     34 C34         -0.8262   1.5269  -1.1820 C.ar           1 <1>                0.0000
     35 C35         -0.7792   2.7483  -0.5624 C.ar           1 <1>                0.0000
     36 O36          2.3569  -2.4437   0.9841 O.3            1 <1>                0.0000
     37 C37          3.5475  -3.2254   1.1002 C.3            1 <1>                0.0000
     38 C38          3.2684  -4.4544   1.9676 C.3            1 <1>                0.0000
     39 C39          3.9990  -3.6748  -0.2919 C.3            1 <1>                0.0000
     40 O40          2.9927  -4.5048  -0.8755 O.3            1 <1>                0.0000
     41 C41          4.2184  -2.4405  -1.1722 C.3            1 <1>                0.0000
     42 O42          4.5690  -2.8528  -2.4947 O.3            1 <1>                0.0000
     43 H43          0.9916  -0.6142  -2.4736 H              1 <1>                0.0000
     44 H44          0.0046  -2.0673  -2.7611 H              1 <1>                0.0000
     45 H45          0.1664  -1.4129  -1.1137 H              1 <1>                0.0000
     46 H46          3.0874  -0.7140  -1.7969 H              1 <1>                0.0000
     47 H47          3.2857  -0.6265   0.6601 H              1 <1>                0.0000
     48 H48          1.2760  -0.5999   2.2444 H              1 <1>                0.0000
     49 H49          2.1585   1.5310   2.4722 H              1 <1>                0.0000
     50 H50          3.2046   1.3533   0.0178 H              1 <1>                0.0000
     51 H51          2.0206   3.1410  -1.2984 H              1 <1>                0.0000
     52 H52          0.3405   3.0812   2.4956 H              1 <1>                0.0000
     53 H53         -2.4908   2.9438   1.9660 H              1 <1>                0.0000
     54 H54         -4.8700   2.3032   2.2448 H              1 <1>                0.0000
     55 H55         -6.5831   0.5730   2.2124 H              1 <1>                0.0000
     56 H56         -5.9936  -1.7790   1.8094 H              1 <1>                0.0000
     57 H57         -3.6742  -2.4416   1.4628 H              1 <1>                0.0000
     58 H58         -1.2699  -1.8152   1.4059 H              1 <1>                0.0000
     59 H59         -0.6374   6.4343   0.9250 H              1 <1>                0.0000
     60 H60         -2.6154   5.6382  -0.1626 H              1 <1>                0.0000
     61 H61         -3.7759   3.9869  -1.6019 H              1 <1>                0.0000
     62 H62         -3.8598   1.7787  -2.6712 H              1 <1>                0.0000
     63 H63         -3.2555   0.3929  -4.1197 H              1 <1>                0.0000
     64 H64         -3.0567  -1.3362  -3.7469 H              1 <1>                0.0000
     65 H65         -4.0262  -0.2998  -2.6725 H              1 <1>                0.0000
     66 H66         -0.0009   0.8380  -1.0904 H              1 <1>                0.0000
     67 H67          4.3325  -2.6258   1.5611 H              1 <1>                0.0000
     68 H68          2.4837  -5.0541   1.5063 H              1 <1>                0.0000
     69 H69          4.1767  -5.0506   2.0560 H              1 <1>                0.0000
     70 H70          2.9460  -4.1343   2.9583 H              1 <1>                0.0000
     71 H71          4.9305  -4.2348  -0.2096 H              1 <1>                0.0000
     72 H72          2.7987  -5.3041  -0.3671 H              1 <1>                0.0000
     73 H73          5.0202  -1.8322  -0.7538 H              1 <1>                0.0000
     74 H74          5.3769  -3.3823  -2.5404 H              1 <1>                0.0000
@<TRIPOS>BOND
    1    1    2 1     
    2    1   43 1     
    3    1   44 1     
    4    1   45 1     
    5    2    3 1     
    6    2    4 1     
    7    2    5 1     
    8    5   41 1     
    9    5    6 1     
   10    5   46 1     
   11    6    7 1     
   12    6   36 1     
   13    6   47 1     
   14    7    8 1     
   15    8   23 1     
   16    8    9 1     
   17    8   48 1     
   18    9   13 1     
   19    9   10 1     
   20    9   49 1     
   21   10   11 2     
   22   10   50 1     
   23   11   12 1     
   24   11   51 1     
   25   12   35 1     
   26   12   13 1     
   27   12   24 1     
   28   13   14 1     
   29   13   52 1     
   30   14   23 ar    
   31   14   15 ar    
   32   15   16 ar    
   33   15   53 1     
   34   16   21 ar    
   35   16   17 ar    
   36   17   18 ar    
   37   17   54 1     
   38   18   19 ar    
   39   18   55 1     
   40   19   20 ar    
   41   19   56 1     
   42   20   21 ar    
   43   20   57 1     
   44   21   22 ar    
   45   22   23 ar    
   46   22   58 1     
   47   24   25 2     
   48   24   26 1     
   49   26   27 2     
   50   26   59 1     
   51   27   28 1     
   52   27   60 1     
   53   28   35 ar    
   54   28   29 ar    
   55   29   30 ar    
   56   29   61 1     
   57   30   31 ar    
   58   30   62 1     
   59   31   32 1     
   60   31   34 ar    
   61   32   33 1     
   62   33   63 1     
   63   33   64 1     
   64   33   65 1     
   65   34   35 ar    
   66   34   66 1     
   67   36   37 1     
   68   37   38 1     
   69   37   39 1     
   70   37   67 1     
   71   38   68 1     
   72   38   69 1     
   73   38   70 1     
   74   39   40 1     
   75   39   41 1     
   76   39   71 1     
   77   40   72 1     
   78   41   42 1     
   79   41   73 1     
   80   42   74 1     
@<TRIPOS>SUBSTRUCTURE
      1 ****           1
@<TRIPOS>SET
DONOR_HYDROGENS      STATIC     ATOMS    <user>   **** ""
4 3 4 72 74
ATOM$RED        STATIC     ATOMS    COLORGROUP SYSTEM
4 3 4 72 74
