#       Name:                S36
#       Creating user name   gbret
#       Creation time:       Fri Sep  9 15:53:18 2016


#       File generated by GOLD software.
#

@<TRIPOS>MOLECULE
S36
    44    46     1
SMALL
NO_CHARGES


@<TRIPOS>ATOM
      1 C1          -3.6159   1.8776   1.6934 C.3            1 <1>                0.0000
      2 C2          -3.5618   0.8012   0.6075 C.3            1 <1>                0.0000
      3 C3          -3.1405   1.4360  -0.7193 C.3            1 <1>                0.0000
      4 C4          -2.5621  -0.2566   0.9981 C.ar           1 <1>                0.0000
      5 C5          -1.2451   0.0864   1.2006 C.ar           1 <1>                0.0000
      6 C6          -0.3161  -0.8936   1.5631 C.ar           1 <1>                0.0000
      7 C7           1.0947  -0.5305   1.7813 C.2            1 <1>                0.0000
      8 O8           1.6589  -0.8703   2.8038 O.2            1 <1>                0.0000
      9 N9           1.7603   0.1782   0.8480 N.am           1 <1>                0.0000
     10 C10          3.1956   0.4736   0.9903 C.3            1 <1>                0.0000
     11 C11          3.9347  -0.2281  -0.1480 C.3            1 <1>                0.0000
     12 C12          3.2540   0.0272  -1.4669 C.ar           1 <1>                0.0000
     13 C13          3.9997  -0.1623  -2.6243 C.ar           1 <1>                0.0000
     14 C14          3.4343   0.0448  -3.8650 C.ar           1 <1>                0.0000
     15 C15          2.1137   0.4430  -3.9612 C.ar           1 <1>                0.0000
     16 C16          1.3721   0.6351  -2.8139 C.ar           1 <1>                0.0000
     17 C17          1.9419   0.4327  -1.5641 C.ar           1 <1>                0.0000
     18 C18          1.0851   0.6810  -0.3532 C.3            1 <1>                0.0000
     19 C19         -0.7332  -2.2245   1.7185 C.ar           1 <1>                0.0000
     20 O20          0.1614  -3.1816   2.0704 O.3            1 <1>                0.0000
     21 C21         -2.0607  -2.5569   1.5119 C.ar           1 <1>                0.0000
     22 C22         -2.9753  -1.5756   1.1581 C.ar           1 <1>                0.0000
     23 O23         -4.2763  -1.9053   0.9568 O.3            1 <1>                0.0000
     24 H24         -2.6312   2.3316   1.8043 H              1 <1>                0.0000
     25 H25         -4.3390   2.6427   1.4109 H              1 <1>                0.0000
     26 H26         -3.9160   1.4254   2.6387 H              1 <1>                0.0000
     27 H27         -4.5465   0.3472   0.4966 H              1 <1>                0.0000
     28 H28         -2.1558   1.8900  -0.6085 H              1 <1>                0.0000
     29 H29         -3.1020   0.6691  -1.4930 H              1 <1>                0.0000
     30 H30         -3.8637   2.2011  -1.0019 H              1 <1>                0.0000
     31 H31         -0.9291   1.1119   1.0794 H              1 <1>                0.0000
     32 H32          3.3586   1.5496   0.9278 H              1 <1>                0.0000
     33 H33          3.5556   0.1005   1.9491 H              1 <1>                0.0000
     34 H34          4.9579   0.1445  -0.1946 H              1 <1>                0.0000
     35 H35          3.9531  -1.3009   0.0441 H              1 <1>                0.0000
     36 H36          5.0311  -0.4741  -2.5514 H              1 <1>                0.0000
     37 H37          4.0214  -0.1040  -4.7592 H              1 <1>                0.0000
     38 H38          1.6646   0.6025  -4.9303 H              1 <1>                0.0000
     39 H39          0.3404   0.9458  -2.8884 H              1 <1>                0.0000
     40 H40          0.1301   0.1694  -0.4736 H              1 <1>                0.0000
     41 H41          0.9113   1.7516  -0.2452 H              1 <1>                0.0000
     42 H42          0.2494  -3.3058   3.0254 H              1 <1>                0.0000
     43 H43         -2.3856  -3.5801   1.6302 H              1 <1>                0.0000
     44 H44         -4.8233  -1.8514   1.7524 H              1 <1>                0.0000
@<TRIPOS>BOND
    1    1    2 1     
    2    1   24 1     
    3    1   25 1     
    4    1   26 1     
    5    2    3 1     
    6    2    4 1     
    7    2   27 1     
    8    3   28 1     
    9    3   29 1     
   10    3   30 1     
   11    4   22 ar    
   12    4    5 ar    
   13    5    6 ar    
   14    5   31 1     
   15    6    7 1     
   16    6   19 ar    
   17    7    8 2     
   18    7    9 am    
   19    9   18 1     
   20    9   10 1     
   21   10   11 1     
   22   10   32 1     
   23   10   33 1     
   24   11   12 1     
   25   11   34 1     
   26   11   35 1     
   27   12   17 ar    
   28   12   13 ar    
   29   13   14 ar    
   30   13   36 1     
   31   14   15 ar    
   32   14   37 1     
   33   15   16 ar    
   34   15   38 1     
   35   16   17 ar    
   36   16   39 1     
   37   17   18 1     
   38   18   40 1     
   39   18   41 1     
   40   19   20 1     
   41   19   21 ar    
   42   20   42 1     
   43   21   22 ar    
   44   21   43 1     
   45   22   23 1     
   46   23   44 1     
@<TRIPOS>SUBSTRUCTURE
      1 ****           1
@<TRIPOS>SET
DONOR_HYDROGENS      STATIC     ATOMS    <user>   **** ""
2 42 44
ATOM$RED        STATIC     ATOMS    COLORGROUP SYSTEM
2 42 44
