#       Name:                S46
#       Creating user name   gbret
#       Creation time:       Fri Sep  9 15:54:06 2016


#       File generated by GOLD software.
#

@<TRIPOS>MOLECULE
S46
    33    34     1
SMALL
NO_CHARGES


@<TRIPOS>ATOM
      1 C1          -0.9722   3.8649  -1.2793 C.3            1 <1>                0.0000
      2 N2          -1.2420   2.4302  -1.1156 N.4            1 <1>                0.0000
      3 H3          -2.2334   2.2875  -0.9935 H              1 <1>                0.0000
      4 C4          -0.7892   1.7092  -2.3119 C.3            1 <1>                0.0000
      5 C5          -1.1731   0.2307  -2.1919 C.3            1 <1>                0.0000
      6 N6          -0.6313  -0.2905  -0.9274 N.am           1 <1>                0.0000
      7 C7          -0.9010   0.4646   0.3059 C.3            1 <1>                0.0000
      8 C8          -0.5282   1.9316   0.0667 C.3            1 <1>                0.0000
      9 C9           0.0913  -1.4279  -0.8997 C.2            1 <1>                0.0000
     10 O10          0.2451  -2.0754  -1.9172 O.2            1 <1>                0.0000
     11 C11          0.6959  -1.8875   0.3660 C.ar           1 <1>                0.0000
     12 C12         -0.0756  -1.9480   1.5295 C.ar           1 <1>                0.0000
     13 C13          0.4920  -2.3777   2.7082 C.ar           1 <1>                0.0000
     14 C14          1.8305  -2.7510   2.7417 C.ar           1 <1>                0.0000
     15 O15          2.3861  -3.1744   3.9052 O.3            1 <1>                0.0000
     16 C16          2.6013  -2.6922   1.5865 C.ar           1 <1>                0.0000
     17 C17          2.0397  -2.2686   0.4027 C.ar           1 <1>                0.0000
     18 H18          0.0985   4.0205  -1.4113 H              1 <1>                0.0000
     19 H19         -1.5041   4.2371  -2.1549 H              1 <1>                0.0000
     20 H20         -1.3108   4.4017  -0.3932 H              1 <1>                0.0000
     21 H21         -1.2631   2.1372  -3.1953 H              1 <1>                0.0000
     22 H22          0.2936   1.7975  -2.4014 H              1 <1>                0.0000
     23 H23         -2.2587   0.1329  -2.1932 H              1 <1>                0.0000
     24 H24         -0.7512  -0.3263  -3.0284 H              1 <1>                0.0000
     25 H25         -1.9591   0.3904   0.5569 H              1 <1>                0.0000
     26 H26         -0.2992   0.0621   1.1208 H              1 <1>                0.0000
     27 H27          0.5468   2.0118  -0.0945 H              1 <1>                0.0000
     28 H28         -0.8106   2.5248   0.9365 H              1 <1>                0.0000
     29 H29         -1.1156  -1.6578   1.5044 H              1 <1>                0.0000
     30 H30         -0.1036  -2.4244   3.6080 H              1 <1>                0.0000
     31 H31          2.3201  -4.1284   4.0482 H              1 <1>                0.0000
     32 H32          3.6410  -2.9827   1.6166 H              1 <1>                0.0000
     33 H33          2.6392  -2.2235  -0.4946 H              1 <1>                0.0000
@<TRIPOS>BOND
    1    1    2 1     
    2    1   18 1     
    3    1   19 1     
    4    1   20 1     
    5    2    3 1     
    6    2    8 1     
    7    2    4 1     
    8    4    5 1     
    9    4   21 1     
   10    4   22 1     
   11    5    6 1     
   12    5   23 1     
   13    5   24 1     
   14    6    7 1     
   15    6    9 am    
   16    7    8 1     
   17    7   25 1     
   18    7   26 1     
   19    8   27 1     
   20    8   28 1     
   21    9   10 2     
   22    9   11 1     
   23   11   17 ar    
   24   11   12 ar    
   25   12   13 ar    
   26   12   29 1     
   27   13   14 ar    
   28   13   30 1     
   29   14   15 1     
   30   14   16 ar    
   31   15   31 1     
   32   16   17 ar    
   33   16   32 1     
   34   17   33 1     
@<TRIPOS>SUBSTRUCTURE
      1 ****           1
@<TRIPOS>SET
DONOR_HYDROGENS      STATIC     ATOMS    <user>   **** ""
2 3 31
ATOM$RED        STATIC     ATOMS    COLORGROUP SYSTEM
2 3 31
