#       Name:                S6G
#       Creating user name   gbret
#       Creation time:       Fri Sep  9 15:55:47 2016


#       File generated by GOLD software.
#

@<TRIPOS>MOLECULE
S6G
    35    37     1
SMALL
NO_CHARGES


@<TRIPOS>ATOM
      1 N1           3.3058   4.4164   0.1014 N.pl3          1 <1>                0.0000
      2 C2           3.3244   3.0442   0.0938 C.2            1 <1>                0.0000
      3 N3           2.1842   2.3904   0.0958 N.2            1 <1>                0.0000
      4 C4           2.1544   1.0521   0.0887 C.2            1 <1>                0.0000
      5 N5           1.1522   0.1198   0.0890 N.pl3          1 <1>                0.0000
      6 C6           1.7387  -1.1124   0.0797 C.2            1 <1>                0.0000
      7 N7           3.0337  -0.9845   0.0738 N.2            1 <1>                0.0000
      8 C8           3.3546   0.3319   0.0789 C.2            1 <1>                0.0000
      9 C9           4.5736   1.0480   0.0772 C.2            1 <1>                0.0000
     10 S10          6.0745   0.2246   0.0654 S.2            1 <1>                0.0000
     11 N11          4.5248   2.3986   0.0789 N.am           1 <1>                0.0000
     12 H12          5.3483   2.9111   0.0774 H              1 <1>                0.0000
     13 C13         -0.2868   0.3946   0.0981 C.3            1 <1>                0.0000
     14 C14         -0.8139   0.5488  -1.3458 C.3            1 <1>                0.0000
     15 C15         -2.2118  -0.1084  -1.3073 C.3            1 <1>                0.0000
     16 O16         -2.2667  -1.2212  -2.2022 O.3            1 <1>                0.0000
     17 C17         -2.3638  -0.5819   0.1553 C.3            1 <1>                0.0000
     18 C18         -3.1006  -1.9218   0.2074 C.3            1 <1>                0.0000
     19 O19         -3.3333  -2.2847   1.5699 O.3            1 <1>                0.0000
     20 P20         -4.0881  -3.6403   1.9996 P.3            1 <1>                0.0000
     21 O21         -3.2285  -4.8764   1.5664 O.co2          1 <1>                0.0000
     22 O22         -4.2836  -3.6590   3.5539 O.co2          1 <1>                0.0000
     23 O23         -5.4867  -3.7047   1.2965 O.co2          1 <1>                0.0000
     24 O24         -1.0105  -0.7332   0.6367 O.3            1 <1>                0.0000
     25 H25          4.1391   4.9128   0.0962 H              1 <1>                0.0000
     26 H26          2.4592   4.8899   0.1080 H              1 <1>                0.0000
     27 H27          1.2076  -2.0528   0.0775 H              1 <1>                0.0000
     28 H28         -0.4972   1.2928   0.6786 H              1 <1>                0.0000
     29 H29         -0.8946   1.6026  -1.6124 H              1 <1>                0.0000
     30 H30         -0.1648   0.0249  -2.0474 H              1 <1>                0.0000
     31 H31         -2.9832   0.6199  -1.5573 H              1 <1>                0.0000
     32 H32         -2.1169  -0.9885  -3.1287 H              1 <1>                0.0000
     33 H33         -2.8960   0.1661   0.7429 H              1 <1>                0.0000
     34 H34         -4.0542  -1.8325  -0.3128 H              1 <1>                0.0000
     35 H35         -2.4943  -2.6889  -0.2744 H              1 <1>                0.0000
@<TRIPOS>BOND
    1    1    2 1     
    2    1   25 1     
    3    1   26 1     
    4    2   11 1     
    5    2    3 2     
    6    3    4 1     
    7    4    8 2     
    8    4    5 1     
    9    5    6 1     
   10    5   13 1     
   11    6    7 2     
   12    6   27 1     
   13    7    8 1     
   14    8    9 1     
   15    9   10 2     
   16    9   11 am    
   17   11   12 1     
   18   13   24 1     
   19   13   14 1     
   20   13   28 1     
   21   14   15 1     
   22   14   29 1     
   23   14   30 1     
   24   15   16 1     
   25   15   17 1     
   26   15   31 1     
   27   16   32 1     
   28   17   18 1     
   29   17   24 1     
   30   17   33 1     
   31   18   19 1     
   32   18   34 1     
   33   18   35 1     
   34   19   20 1     
   35   20   21 ar    
   36   20   22 ar    
   37   20   23 ar    
@<TRIPOS>SUBSTRUCTURE
      1 ****           1
@<TRIPOS>SET
DONOR_HYDROGENS      STATIC     ATOMS    <user>   **** ""
4 25 26 12 32
ATOM$RED        STATIC     ATOMS    COLORGROUP SYSTEM
4 25 26 12 32
