#       Name:                S7P
#       Creating user name   gbret
#       Creation time:       Fri Sep  9 15:56:33 2016


#       File generated by GOLD software.
#

@<TRIPOS>MOLECULE
S7P
    31    31     1
SMALL
NO_CHARGES


@<TRIPOS>ATOM
      1 O1           2.6284   2.0653   1.7215 O.3            1 <1>                0.0000
      2 C2           2.6478   0.6364   1.7136 C.3            1 <1>                0.0000
      3 C3           1.2124   0.1069   1.7245 C.3            1 <1>                0.0000
      4 O4           0.5099   0.5997   2.8671 O.3            1 <1>                0.0000
      5 O5           0.5282   0.4838   0.5097 O.3            1 <1>                0.0000
      6 C6          -0.5757  -0.4400   0.3924 C.3            1 <1>                0.0000
      7 C7          -1.0684  -0.5001  -1.0549 C.3            1 <1>                0.0000
      8 O8          -2.1369  -1.4436  -1.1555 O.3            1 <1>                0.0000
      9 C9          -1.5666   0.8821  -1.4818 C.3            1 <1>                0.0000
     10 O10         -1.9178   0.8550  -2.8667 O.3            1 <1>                0.0000
     11 P11         -2.4824   2.1412  -3.6535 P.3            1 <1>                0.0000
     12 O12         -1.3741   3.2470  -3.7095 O.co2          1 <1>                0.0000
     13 O13         -2.8819   1.7280  -5.1109 O.co2          1 <1>                0.0000
     14 O14         -3.7405   2.7001  -2.9057 O.co2          1 <1>                0.0000
     15 C15          0.0057  -1.8060   0.8197 C.3            1 <1>                0.0000
     16 O16          0.4405  -2.5448  -0.3235 O.3            1 <1>                0.0000
     17 C17          1.2090  -1.4379   1.7162 C.3            1 <1>                0.0000
     18 O18          2.4238  -1.9383   1.1540 O.3            1 <1>                0.0000
     19 H19          3.5063   2.4706   1.7153 H              1 <1>                0.0000
     20 H20          3.1580   0.2849   0.8168 H              1 <1>                0.0000
     21 H21          3.1750   0.2754   2.5967 H              1 <1>                0.0000
     22 H22          0.4595   1.5644   2.9119 H              1 <1>                0.0000
     23 H23         -1.3882  -0.1468   1.0572 H              1 <1>                0.0000
     24 H24         -0.2495  -0.8079  -1.7050 H              1 <1>                0.0000
     25 H25         -2.9015  -1.2325  -0.6023 H              1 <1>                0.0000
     26 H26         -2.4416   1.1516  -0.8903 H              1 <1>                0.0000
     27 H27         -0.7787   1.6179  -1.3211 H              1 <1>                0.0000
     28 H28         -0.7330  -2.3759   1.3833 H              1 <1>                0.0000
     29 H29          0.8145  -3.4113  -0.1129 H              1 <1>                0.0000
     30 H30          1.0662  -1.8249   2.7251 H              1 <1>                0.0000
     31 H31          2.4507  -2.9012   1.0693 H              1 <1>                0.0000
@<TRIPOS>BOND
    1    1    2 1     
    2    1   19 1     
    3    2    3 1     
    4    2   20 1     
    5    2   21 1     
    6    3   17 1     
    7    3    4 1     
    8    3    5 1     
    9    4   22 1     
   10    5    6 1     
   11    6    7 1     
   12    6   15 1     
   13    6   23 1     
   14    7    8 1     
   15    7    9 1     
   16    7   24 1     
   17    8   25 1     
   18    9   10 1     
   19    9   26 1     
   20    9   27 1     
   21   10   11 1     
   22   11   12 ar    
   23   11   13 ar    
   24   11   14 ar    
   25   15   16 1     
   26   15   17 1     
   27   15   28 1     
   28   16   29 1     
   29   17   18 1     
   30   17   30 1     
   31   18   31 1     
@<TRIPOS>SUBSTRUCTURE
      1 ****           1
@<TRIPOS>SET
DONOR_HYDROGENS      STATIC     ATOMS    <user>   **** ""
5 19 22 25 29 31
ATOM$RED        STATIC     ATOMS    COLORGROUP SYSTEM
5 19 22 25 29 31
