#       Name:                SBS
#       Creating user name   gbret
#       Creation time:       Fri Sep  9 16:01:14 2016


#       File generated by GOLD software.
#

@<TRIPOS>MOLECULE
SBS
    47    49     1
SMALL
NO_CHARGES


@<TRIPOS>ATOM
      1 C1           0.7866   1.4456  -1.5594 C.3            1 <1>                0.0000
      2 C2           0.8074  -0.0843  -1.5678 C.3            1 <1>                0.0000
      3 C3          -0.6280  -0.6138  -1.5569 C.3            1 <1>                0.0000
      4 N4          -1.2762  -0.2420  -0.2969 N.am           1 <1>                0.0000
      5 C5          -2.5532  -0.6042  -0.0634 C.2            1 <1>                0.0000
      6 O6          -3.1671  -1.2394  -0.8983 O.2            1 <1>                0.0000
      7 C7          -3.2074  -0.2289   1.2083 C.ar           1 <1>                0.0000
      8 C8          -2.5071   0.5055   2.1666 C.ar           1 <1>                0.0000
      9 C9          -3.1235   0.8529   3.3510 C.ar           1 <1>                0.0000
     10 C10         -4.4328   0.4745   3.5899 C.ar           1 <1>                0.0000
     11 C11         -5.1324  -0.2539   2.6442 C.ar           1 <1>                0.0000
     12 C12         -4.5297  -0.6024   1.4532 C.ar           1 <1>                0.0000
     13 S13         -5.2124   0.9218   5.1054 S.o2           1 <1>                0.0000
     14 N14         -5.9382   2.3913   4.8682 N.pl3          1 <1>                0.0000
     15 O15         -6.2609  -0.0154   5.3092 O.2            1 <1>                0.0000
     16 O16         -4.1686   1.1369   6.0454 O.2            1 <1>                0.0000
     17 C17          1.5235  -0.5777  -2.8266 C.3            1 <1>                0.0000
     18 N18          2.9302  -0.1713  -2.7792 N.pl3          1 <1>                0.0000
     19 C19          3.4415   0.9597  -3.3552 C.2            1 <1>                0.0000
     20 C20          4.7619   1.0336  -3.1250 C.2            1 <1>                0.0000
     21 C21          5.1260  -0.1466  -2.3372 C.ar           1 <1>                0.0000
     22 C22          6.3236  -0.6237  -1.8007 C.ar           1 <1>                0.0000
     23 C23          6.3320  -1.7929  -1.0940 C.ar           1 <1>                0.0000
     24 C24          5.1590  -2.5113  -0.9052 C.ar           1 <1>                0.0000
     25 C25          3.9667  -2.0591  -1.4261 C.ar           1 <1>                0.0000
     26 C26          3.9337  -0.8674  -2.1433 C.ar           1 <1>                0.0000
     27 H27          1.8092   1.8229  -1.5671 H              1 <1>                0.0000
     28 H28          0.2594   1.8066  -2.4424 H              1 <1>                0.0000
     29 H29          0.2764   1.7971  -0.6626 H              1 <1>                0.0000
     30 H30          1.3346  -0.4453  -0.6847 H              1 <1>                0.0000
     31 H31         -1.1809  -0.1821  -2.3912 H              1 <1>                0.0000
     32 H32         -0.6154  -1.6996  -1.6524 H              1 <1>                0.0000
     33 H33         -0.7863   0.2649   0.3694 H              1 <1>                0.0000
     34 H34         -1.4849   0.8008   1.9816 H              1 <1>                0.0000
     35 H35         -2.5828   1.4211   4.0934 H              1 <1>                0.0000
     36 H36         -6.1540  -0.5464   2.8370 H              1 <1>                0.0000
     37 H37         -5.0770  -1.1707   0.7157 H              1 <1>                0.0000
     38 H38         -6.7405   2.6213   5.3624 H              1 <1>                0.0000
     39 H39         -5.5609   3.0220   4.2351 H              1 <1>                0.0000
     40 H40          1.4609  -1.6647  -2.8777 H              1 <1>                0.0000
     41 H41          1.0497  -0.1446  -3.7075 H              1 <1>                0.0000
     42 H42          2.8677   1.6854  -3.9124 H              1 <1>                0.0000
     43 H43          5.4294   1.8146  -3.4580 H              1 <1>                0.0000
     44 H44          7.2400  -0.0706  -1.9442 H              1 <1>                0.0000
     45 H45          7.2585  -2.1615  -0.6793 H              1 <1>                0.0000
     46 H46          5.1817  -3.4341  -0.3446 H              1 <1>                0.0000
     47 H47          3.0597  -2.6255  -1.2744 H              1 <1>                0.0000
@<TRIPOS>BOND
    1    1    2 1     
    2    1   27 1     
    3    1   28 1     
    4    1   29 1     
    5    2    3 1     
    6    2   17 1     
    7    2   30 1     
    8    3    4 1     
    9    3   31 1     
   10    3   32 1     
   11    4    5 am    
   12    4   33 1     
   13    5    6 2     
   14    5    7 1     
   15    7   12 ar    
   16    7    8 ar    
   17    8    9 ar    
   18    8   34 1     
   19    9   10 ar    
   20    9   35 1     
   21   10   11 ar    
   22   10   13 1     
   23   11   12 ar    
   24   11   36 1     
   25   12   37 1     
   26   13   14 1     
   27   13   15 2     
   28   13   16 2     
   29   14   38 1     
   30   14   39 1     
   31   17   18 1     
   32   17   40 1     
   33   17   41 1     
   34   18   26 1     
   35   18   19 1     
   36   19   20 2     
   37   19   42 1     
   38   20   21 1     
   39   20   43 1     
   40   21   26 ar    
   41   21   22 ar    
   42   22   23 ar    
   43   22   44 1     
   44   23   24 ar    
   45   23   45 1     
   46   24   25 ar    
   47   24   46 1     
   48   25   26 ar    
   49   25   47 1     
@<TRIPOS>SUBSTRUCTURE
      1 ****           1
@<TRIPOS>SET
DONOR_HYDROGENS      STATIC     ATOMS    <user>   **** ""
3 33 38 39
ATOM$RED        STATIC     ATOMS    COLORGROUP SYSTEM
3 33 38 39
