#       Name:                SM6
#       Creating user name   gbret
#       Creation time:       Fri Sep  9 16:16:42 2016


#       File generated by GOLD software.
#

@<TRIPOS>MOLECULE
SM6
    42    45     1
SMALL
NO_CHARGES


@<TRIPOS>ATOM
      1 C1           4.0659   3.5972   2.7364 C.3            1 <1>                0.0000
      2 C2           2.8626   2.6567   2.6441 C.3            1 <1>                0.0000
      3 O3           2.0871   2.9873   1.4902 O.3            1 <1>                0.0000
      4 C4           1.0385   2.1865   1.2068 C.2            1 <1>                0.0000
      5 O5           0.7455   1.2779   1.9612 O.2            1 <1>                0.0000
      6 C6           0.2781   2.4039   0.0297 C.2            1 <1>                0.0000
      7 S7           0.6754   3.5832  -1.2049 S.3            1 <1>                0.0000
      8 C8          -0.7220   3.1494  -2.1773 C.ar           1 <1>                0.0000
      9 C9          -1.1755   3.6458  -3.4047 C.ar           1 <1>                0.0000
     10 N10         -2.2646   3.1667  -3.9598 N.ar           1 <1>                0.0000
     11 C11         -2.9765   2.2053  -3.3956 C.ar           1 <1>                0.0000
     12 C12         -2.6133   1.6599  -2.2020 C.ar           1 <1>                0.0000
     13 C13         -1.4499   2.1313  -1.5503 C.ar           1 <1>                0.0000
     14 C14         -0.8511   1.7220  -0.2932 C.2            1 <1>                0.0000
     15 N15         -1.3870   0.7247   0.5096 N.pl3          1 <1>                0.0000
     16 C16         -1.0082  -0.6023   0.3182 C.ar           1 <1>                0.0000
     17 C17          0.0138  -0.8986  -0.6043 C.ar           1 <1>                0.0000
     18 C18          0.4321  -2.1581  -0.8417 C.ar           1 <1>                0.0000
     19 C19         -0.1561  -3.2541  -0.1542 C.ar           1 <1>                0.0000
     20 C20          0.0814  -4.5964  -0.2116 C.2            1 <1>                0.0000
     21 C21         -0.8680  -5.2565   0.7613 C.3            1 <1>                0.0000
     22 C22         -1.6693  -4.1320   1.3749 C.2            1 <1>                0.0000
     23 C23         -1.2326  -2.9768   0.8224 C.ar           1 <1>                0.0000
     24 C24         -1.6307  -1.5792   1.0308 C.ar           1 <1>                0.0000
     25 N25          1.0046  -5.2260  -1.0014 N.pl3          1 <1>                0.0000
     26 O26          1.8284  -4.4686  -1.8690 O.2            1 <1>                0.0000
     27 H27          4.6804   3.4897   1.8426 H              1 <1>                0.0000
     28 H28          3.7170   4.6268   2.8158 H              1 <1>                0.0000
     29 H29          4.6574   3.3451   3.6165 H              1 <1>                0.0000
     30 H30          3.2114   1.6271   2.5646 H              1 <1>                0.0000
     31 H31          2.2480   2.7642   3.5379 H              1 <1>                0.0000
     32 H32         -0.6241   4.4313  -3.9001 H              1 <1>                0.0000
     33 H33         -3.8654   1.8452  -3.8922 H              1 <1>                0.0000
     34 H34         -3.2075   0.8753  -1.7574 H              1 <1>                0.0000
     35 H35         -2.0252   0.9515   1.2039 H              1 <1>                0.0000
     36 H36          0.4799  -0.0862  -1.1421 H              1 <1>                0.0000
     37 H37          1.2193  -2.3354  -1.5595 H              1 <1>                0.0000
     38 H38         -1.5282  -5.9455   0.2346 H              1 <1>                0.0000
     39 H39         -0.3089  -5.7854   1.5332 H              1 <1>                0.0000
     40 H40         -2.4472  -4.2320   2.1173 H              1 <1>                0.0000
     41 H41         -2.4088  -1.3307   1.7374 H              1 <1>                0.0000
     42 H42          1.0947  -6.1912  -0.9669 H              1 <1>                0.0000
@<TRIPOS>BOND
    1    1    2 1     
    2    1   27 1     
    3    1   28 1     
    4    1   29 1     
    5    2    3 1     
    6    2   30 1     
    7    2   31 1     
    8    3    4 1     
    9    4    5 2     
   10    4    6 1     
   11    6   14 2     
   12    6    7 1     
   13    7    8 1     
   14    8   13 ar    
   15    8    9 ar    
   16    9   10 ar    
   17    9   32 1     
   18   10   11 ar    
   19   11   12 ar    
   20   11   33 1     
   21   12   13 ar    
   22   12   34 1     
   23   13   14 1     
   24   14   15 1     
   25   15   16 1     
   26   15   35 1     
   27   16   24 ar    
   28   16   17 ar    
   29   17   18 ar    
   30   17   36 1     
   31   18   19 ar    
   32   18   37 1     
   33   19   23 ar    
   34   19   20 2     
   35   20   21 1     
   36   20   25 1     
   37   21   22 1     
   38   21   38 1     
   39   21   39 1     
   40   22   23 2     
   41   22   40 1     
   42   23   24 ar    
   43   24   41 1     
   44   25   26 1     
   45   25   42 1     
@<TRIPOS>SUBSTRUCTURE
      1 ****           1
@<TRIPOS>SET
DONOR_HYDROGENS      STATIC     ATOMS    <user>   **** ""
2 35 42
ATOM$RED        STATIC     ATOMS    COLORGROUP SYSTEM
2 35 42
