#       Name:                SO1
#       Creating user name   gbret
#       Creation time:       Fri Sep  9 16:20:13 2016


#       File generated by GOLD software.
#

@<TRIPOS>MOLECULE
SO1
    76    80     1
SMALL
NO_CHARGES


@<TRIPOS>ATOM
      1 C1           0.4830   5.4775   3.8337 C.3            1 <1>                0.0000
      2 O2          -0.2748   4.5971   3.0014 O.3            1 <1>                0.0000
      3 C3          -0.4383   5.0623   1.6602 C.3            1 <1>                0.0000
      4 C4           0.6187   4.4148   0.7617 C.3            1 <1>                0.0000
      5 C5           2.0138   4.7420   1.2977 C.3            1 <1>                0.0000
      6 O6           0.4316   2.9981   0.7532 O.3            1 <1>                0.0000
      7 C7          -0.8364   2.5801   0.2436 C.3            1 <1>                0.0000
      8 O8          -0.9075   1.1529   0.2550 O.3            1 <1>                0.0000
      9 C9           0.0229   0.5175  -0.6240 C.3            1 <1>                0.0000
     10 C10         -0.1422  -1.0046  -0.5298 C.3            1 <1>                0.0000
     11 C11         -0.3177  -1.3978   0.9302 C.3            1 <1>                0.0000
     12 C12         -0.6327  -2.8614   1.0591 C.3            1 <1>                0.0000
     13 C13         -0.6153  -3.4803   2.4570 C.3            1 <1>                0.0000
     14 C14         -2.0036  -3.3864   3.0899 C.3            1 <1>                0.0000
     15 C15         -0.2308  -4.9637   2.2154 C.3            1 <1>                0.0000
     16 C16          0.1172  -5.0803   0.7031 C.3            1 <1>                0.0000
     17 C17          0.5123  -3.6364   0.3483 C.3            1 <1>                0.0000
     18 C18          0.4414  -3.2715  -1.1283 C.3            1 <1>                0.0000
     19 C19         -1.0556  -3.0731  -1.4971 C.3            1 <1>                0.0000
     20 C20         -1.3087  -1.5366  -1.4212 C.3            1 <1>                0.0000
     21 C21         -0.7819  -1.0552  -2.8202 C.3            1 <1>                0.0000
     22 C22          0.7170  -1.4311  -2.7551 C.3            1 <1>                0.0000
     23 C23          1.6108  -0.2849  -3.2250 C.3            1 <1>                0.0000
     24 C24          1.8320  -0.3966  -4.7347 C.3            1 <1>                0.0000
     25 C25          0.9369   1.0511  -2.9058 C.3            1 <1>                0.0000
     26 C26          0.9835  -1.8002  -1.2608 C.3            1 <1>                0.0000
     27 C27          2.3934  -1.5599  -0.7916 C.2            1 <1>                0.0000
     28 O28          3.3071  -1.5269  -1.5981 O.co2          1 <1>                0.0000
     29 O29          2.6217  -1.3985   0.3952 O.co2          1 <1>                0.0000
     30 C30          1.1577  -4.2791  -2.0066 C.2            1 <1>                0.0000
     31 O31          1.7096  -5.2303  -1.5078 O.2            1 <1>                0.0000
     32 C32         -1.9518   3.1539   1.1213 C.3            1 <1>                0.0000
     33 O33         -1.8284   2.6381   2.4483 O.3            1 <1>                0.0000
     34 C34         -1.8321   4.6806   1.1524 C.3            1 <1>                0.0000
     35 O35         -2.8242   5.2202   2.0279 O.3            1 <1>                0.0000
     36 H36          1.4805   5.6059   3.4135 H              1 <1>                0.0000
     37 H37         -0.0157   6.4452   3.8879 H              1 <1>                0.0000
     38 H38          0.5622   5.0530   4.8345 H              1 <1>                0.0000
     39 H39         -0.3253   6.1461   1.6343 H              1 <1>                0.0000
     40 H40          0.5193   4.8009  -0.2528 H              1 <1>                0.0000
     41 H41          2.1500   4.2679   2.2697 H              1 <1>                0.0000
     42 H42          2.7666   4.3694   0.6030 H              1 <1>                0.0000
     43 H43          2.1188   5.8219   1.4023 H              1 <1>                0.0000
     44 H44         -0.9549   2.9418  -0.7777 H              1 <1>                0.0000
     45 H45         -0.1655   0.8408  -1.6477 H              1 <1>                0.0000
     46 H46          1.0384   0.7912  -0.3376 H              1 <1>                0.0000
     47 H47          0.5967  -1.1715   1.4801 H              1 <1>                0.0000
     48 H48         -1.1355  -0.8127   1.3589 H              1 <1>                0.0000
     49 H49         -1.6030  -3.0699   0.6237 H              1 <1>                0.0000
     50 H50          0.1271  -2.9861   3.0778 H              1 <1>                0.0000
     51 H51         -2.7224  -3.9224   2.4701 H              1 <1>                0.0000
     52 H52         -1.9800  -3.8301   4.0852 H              1 <1>                0.0000
     53 H53         -2.2984  -2.3397   3.1655 H              1 <1>                0.0000
     54 H54          0.6360  -5.2287   2.8196 H              1 <1>                0.0000
     55 H55         -1.0714  -5.6132   2.4562 H              1 <1>                0.0000
     56 H56          0.9574  -5.7560   0.5546 H              1 <1>                0.0000
     57 H57         -0.7513  -5.3956   0.1295 H              1 <1>                0.0000
     58 H58          1.4921  -3.4071   0.7893 H              1 <1>                0.0000
     59 H59         -1.2101  -3.4030  -2.5390 H              1 <1>                0.0000
     60 H60         -1.7227  -3.6385  -0.8683 H              1 <1>                0.0000
     61 H61         -2.3127  -1.2240  -1.1530 H              1 <1>                0.0000
     62 H62         -1.2773  -1.6205  -3.6149 H              1 <1>                0.0000
     63 H63         -0.9316   0.0048  -2.9683 H              1 <1>                0.0000
     64 H64          0.8933  -2.2880  -3.4133 H              1 <1>                0.0000
     65 H65          2.5710  -0.3391  -2.7120 H              1 <1>                0.0000
     66 H66          0.8830  -0.2565  -5.2524 H              1 <1>                0.0000
     67 H67          2.5378   0.3693  -5.0562 H              1 <1>                0.0000
     68 H68          2.2328  -1.3823  -4.9713 H              1 <1>                0.0000
     69 H69          1.1801   1.3461  -1.8850 H              1 <1>                0.0000
     70 H70          1.2938   1.8129  -3.5989 H              1 <1>                0.0000
     71 H71         -0.1434   0.9462  -3.0060 H              1 <1>                0.0000
     72 H72          1.1743  -4.1459  -3.0783 H              1 <1>                0.0000
     73 H73         -2.9208   2.8718   0.7096 H              1 <1>                0.0000
     74 H74         -1.8899   1.6746   2.5031 H              1 <1>                0.0000
     75 H75         -1.9756   5.0781   0.1476 H              1 <1>                0.0000
     76 H76         -3.7323   5.0110   1.7698 H              1 <1>                0.0000
@<TRIPOS>BOND
    1    1    2 1     
    2    1   36 1     
    3    1   37 1     
    4    1   38 1     
    5    2    3 1     
    6    3   34 1     
    7    3    4 1     
    8    3   39 1     
    9    4    5 1     
   10    4    6 1     
   11    4   40 1     
   12    5   41 1     
   13    5   42 1     
   14    5   43 1     
   15    6    7 1     
   16    7    8 1     
   17    7   32 1     
   18    7   44 1     
   19    8    9 1     
   20    9   10 1     
   21    9   45 1     
   22    9   46 1     
   23   10   20 1     
   24   10   26 1     
   25   10   11 1     
   26   11   12 1     
   27   11   47 1     
   28   11   48 1     
   29   12   17 1     
   30   12   13 1     
   31   12   49 1     
   32   13   14 1     
   33   13   15 1     
   34   13   50 1     
   35   14   51 1     
   36   14   52 1     
   37   14   53 1     
   38   15   16 1     
   39   15   54 1     
   40   15   55 1     
   41   16   17 1     
   42   16   56 1     
   43   16   57 1     
   44   17   18 1     
   45   17   58 1     
   46   18   26 1     
   47   18   19 1     
   48   18   30 1     
   49   19   20 1     
   50   19   59 1     
   51   19   60 1     
   52   20   21 1     
   53   20   61 1     
   54   21   22 1     
   55   21   62 1     
   56   21   63 1     
   57   22   23 1     
   58   22   26 1     
   59   22   64 1     
   60   23   24 1     
   61   23   25 1     
   62   23   65 1     
   63   24   66 1     
   64   24   67 1     
   65   24   68 1     
   66   25   69 1     
   67   25   70 1     
   68   25   71 1     
   69   26   27 1     
   70   27   28 ar    
   71   27   29 ar    
   72   30   31 2     
   73   30   72 1     
   74   32   33 1     
   75   32   34 1     
   76   32   73 1     
   77   33   74 1     
   78   34   35 1     
   79   34   75 1     
   80   35   76 1     
@<TRIPOS>SUBSTRUCTURE
      1 ****           1
@<TRIPOS>SET
DONOR_HYDROGENS      STATIC     ATOMS    <user>   **** ""
2 74 76
ATOM$RED        STATIC     ATOMS    COLORGROUP SYSTEM
2 74 76
