@<TRIPOS>MOLECULE
SQ
  24   24    0    0    0
SMALL
NO_CHARGES


@<TRIPOS>ATOM
   1 C1            -0.0187     1.5258     0.0104 C.3     
   2 C2             0.0021    -0.0041     0.0020 C.3     
   3 N3             0.6897    -0.4778    -1.2066 N.3     
   4 C4             0.7288    -1.9457    -1.2488 C.3     
   5 C5             0.9259    -2.5159    -2.6628 C.3     
   6 N6             0.4804    -1.6150    -3.7343 N.4     
   7 H7            -0.4824    -1.3568    -3.5780 H       
   8 H8             1.0549    -0.7856    -3.7369 H       
   9 C9             0.6002    -2.2977    -5.0295 C.3     
  10 C10            2.4080    -2.4265    -2.3638 C.2     
  11 O11            3.4166    -2.3198    -3.0198 O.2     
  12 C12            2.0857    -2.5263    -0.9080 C.2     
  13 O13            2.6522    -2.9008     0.0909 O.2     
  14 H14            1.0039     1.9031     0.0027 H       
  15 H15           -0.5459     1.8868    -0.8726 H       
  16 H16           -0.5289     1.8773     0.9072 H       
  17 H17            0.5293    -0.3651     0.8851 H       
  18 H18           -1.0205    -0.3814     0.0098 H       
  19 H19            0.2581    -0.1036    -2.0383 H       
  20 H20           -0.0932    -2.4068    -0.7014 H       
  21 H21            0.5587    -3.5352    -2.7824 H       
  22 H22            1.6402    -2.5767    -5.1983 H       
  23 H23           -0.0205    -3.1938    -5.0266 H       
  24 H24            0.2696    -1.6293    -5.8245 H       
@<TRIPOS>BOND
   1    1    2 1
   2    1   14 1
   3    1   15 1
   4    1   16 1
   5    2    3 1
   6    2   17 1
   7    2   18 1
   8    3    4 1
   9    3   19 1
  10    4   12 1
  11    4    5 1
  12    4   20 1
  13    5    6 1
  14    5   10 1
  15    5   21 1
  16    6    7 1
  17    6    8 1
  18    6    9 1
  19    9   22 1
  20    9   23 1
  21    9   24 1
  22   10   11 2
  23   10   12 1
  24   12   13 2





