#       Name:                SU4
#       Creating user name   gbret
#       Creation time:       Fri Sep  9 16:30:19 2016


#       File generated by GOLD software.
#

@<TRIPOS>MOLECULE
SU4
    44    46     1
SMALL
NO_CHARGES


@<TRIPOS>ATOM
      1 C1           0.4578   1.5171  -0.5488 C.3            1 <1>                0.0000
      2 C2           0.3592   0.0263  -0.8789 C.3            1 <1>                0.0000
      3 O3           1.1337  -0.7218   0.0605 O.3            1 <1>                0.0000
      4 C4          -1.1031  -0.4173  -0.8024 C.3            1 <1>                0.0000
      5 N5          -1.6239  -0.1530   0.5411 N.pl3          1 <1>                0.0000
      6 C6          -2.2129   1.1511   0.8550 C.3            1 <1>                0.0000
      7 C7          -2.2159   2.2093  -0.2501 C.3            1 <1>                0.0000
      8 C8          -3.5216   1.5222   0.1547 C.3            1 <1>                0.0000
      9 S9          -1.5470  -1.3285   1.7051 S.o2           1 <1>                0.0000
     10 O10         -2.6900  -1.1513   2.5305 O.2            1 <1>                0.0000
     11 O11         -1.2575  -2.5443   1.0290 O.2            1 <1>                0.0000
     12 C12         -0.1458  -0.9737   2.7128 C.ar           1 <1>                0.0000
     13 C13          1.0509  -1.6280   2.4859 C.ar           1 <1>                0.0000
     14 C14          2.1509  -1.3516   3.2746 C.ar           1 <1>                0.0000
     15 C15          2.0542  -0.4163   4.2947 C.ar           1 <1>                0.0000
     16 O16          3.1350  -0.1424   5.0716 O.co2          1 <1>                0.0000
     17 C17          0.8525   0.2391   4.5200 C.ar           1 <1>                0.0000
     18 C18         -0.2433  -0.0373   3.7254 C.ar           1 <1>                0.0000
     19 C19          0.8856  -0.2160  -2.2700 C.ar           1 <1>                0.0000
     20 C20          0.0301  -0.1504  -3.3539 C.ar           1 <1>                0.0000
     21 C21          0.5129  -0.3727  -4.6299 C.ar           1 <1>                0.0000
     22 C22          1.8513  -0.6602  -4.8222 C.ar           1 <1>                0.0000
     23 C23          2.7070  -0.7249  -3.7384 C.ar           1 <1>                0.0000
     24 C24          2.2250  -0.4984  -2.4628 C.ar           1 <1>                0.0000
     25 H25          1.5066   1.8097  -0.4996 H              1 <1>                0.0000
     26 H26         -0.0447   2.0949  -1.3245 H              1 <1>                0.0000
     27 H27         -0.0183   1.7085   0.4128 H              1 <1>                0.0000
     28 H28          1.1882  -1.6665  -0.1385 H              1 <1>                0.0000
     29 H29         -1.6897   0.1369  -1.5350 H              1 <1>                0.0000
     30 H30         -1.1706  -1.4843  -1.0149 H              1 <1>                0.0000
     31 H31         -2.0759   1.4943   1.8804 H              1 <1>                0.0000
     32 H32         -2.0807   3.2489   0.0482 H              1 <1>                0.0000
     33 H33         -1.7797   1.9351  -1.2107 H              1 <1>                0.0000
     34 H34         -3.9444   0.7960  -0.5395 H              1 <1>                0.0000
     35 H35         -4.2455   2.1098   0.7193 H              1 <1>                0.0000
     36 H36          1.1257  -2.3560   1.6917 H              1 <1>                0.0000
     37 H37          3.0853  -1.8635   3.0974 H              1 <1>                0.0000
     38 H38          0.7746   0.9674   5.3137 H              1 <1>                0.0000
     39 H39         -1.1790   0.4730   3.9002 H              1 <1>                0.0000
     40 H40         -1.0156   0.0742  -3.2037 H              1 <1>                0.0000
     41 H41         -0.1556  -0.3221  -5.4767 H              1 <1>                0.0000
     42 H42          2.2284  -0.8346  -5.8191 H              1 <1>                0.0000
     43 H43          3.7525  -0.9498  -3.8886 H              1 <1>                0.0000
     44 H44          2.8935  -0.5490  -1.6160 H              1 <1>                0.0000
@<TRIPOS>BOND
    1    1    2 1     
    2    1   25 1     
    3    1   26 1     
    4    1   27 1     
    5    2    3 1     
    6    2    4 1     
    7    2   19 1     
    8    3   28 1     
    9    4    5 1     
   10    4   29 1     
   11    4   30 1     
   12    5    6 1     
   13    5    9 1     
   14    6    8 1     
   15    6    7 1     
   16    6   31 1     
   17    7    8 1     
   18    7   32 1     
   19    7   33 1     
   20    8   34 1     
   21    8   35 1     
   22    9   10 2     
   23    9   11 2     
   24    9   12 1     
   25   12   18 ar    
   26   12   13 ar    
   27   13   14 ar    
   28   13   36 1     
   29   14   15 ar    
   30   14   37 1     
   31   15   16 ar    
   32   15   17 ar    
   33   17   18 ar    
   34   17   38 1     
   35   18   39 1     
   36   19   24 ar    
   37   19   20 ar    
   38   20   21 ar    
   39   20   40 1     
   40   21   22 ar    
   41   21   41 1     
   42   22   23 ar    
   43   22   42 1     
   44   23   24 ar    
   45   23   43 1     
   46   24   44 1     
@<TRIPOS>SUBSTRUCTURE
      1 ****           1
@<TRIPOS>SET
DONOR_HYDROGENS      STATIC     ATOMS    <user>   **** ""
1 28
ATOM$RED        STATIC     ATOMS    COLORGROUP SYSTEM
1 28
