#       Name:                SUV
#       Creating user name   gbret
#       Creation time:       Fri Sep  9 16:31:42 2016


#       File generated by GOLD software.
#

@<TRIPOS>MOLECULE
SUV
    55    59     1
SMALL
NO_CHARGES


@<TRIPOS>ATOM
      1 C1          -2.9314   2.9596  -0.3609 C.3            1 <1>                0.0000
      2 C2          -2.7589   1.4465  -0.5080 C.3            1 <1>                0.0000
      3 C3          -2.0290   1.1438  -1.7434 C.3            1 <1>                0.0000
      4 C4          -1.7511  -0.3404  -1.9550 C.3            1 <1>                0.0000
      5 N5          -0.4745  -0.5826  -1.3362 N.3            1 <1>                0.0000
      6 C6          -0.6156  -1.1626   0.0270 C.3            1 <1>                0.0000
      7 C7          -1.7989  -0.5111   0.7777 C.3            1 <1>                0.0000
      8 N8          -1.9369   0.9112   0.6299 N.am           1 <1>                0.0000
      9 C9          -1.3384   1.7514   1.4973 C.2            1 <1>                0.0000
     10 O10         -1.5381   2.9482   1.4204 O.2            1 <1>                0.0000
     11 C11         -0.4403   1.2184   2.5409 C.ar           1 <1>                0.0000
     12 C12         -0.9402   0.3709   3.5314 C.ar           1 <1>                0.0000
     13 C13         -0.0964  -0.1240   4.5031 C.ar           1 <1>                0.0000
     14 C14         -0.6377  -1.0386   5.5715 C.3            1 <1>                0.0000
     15 C15          1.2464   0.2152   4.5014 C.ar           1 <1>                0.0000
     16 C16          1.7541   1.0526   3.5275 C.ar           1 <1>                0.0000
     17 C17          0.9203   1.5557   2.5395 C.ar           1 <1>                0.0000
     18 N18          1.4325   2.4034   1.5528 N.pl3          1 <1>                0.0000
     19 N19          0.7633   2.8388   0.5447 N.2            1 <1>                0.0000
     20 C20          1.5442   3.6083  -0.1793 C.2            1 <1>                0.0000
     21 C21          2.7815   3.6185   0.4718 C.2            1 <1>                0.0000
     22 N22          2.6353   2.8581   1.5332 N.2            1 <1>                0.0000
     23 C23          0.3161  -1.3801  -2.1322 C.2            1 <1>                0.0000
     24 N24         -0.0336  -1.8550  -3.3003 N.2            1 <1>                0.0000
     25 C25          0.9948  -2.5971  -3.7954 C.ar           1 <1>                0.0000
     26 C26          1.1794  -3.3232  -4.9728 C.ar           1 <1>                0.0000
     27 C27          2.3686  -3.9870  -5.1873 C.ar           1 <1>                0.0000
     28 Cl28         2.6009  -4.8909  -6.6510 Cl             1 <1>                0.0000
     29 C29          3.3809  -3.9361  -4.2398 C.ar           1 <1>                0.0000
     30 C30          3.2100  -3.2217  -3.0713 C.ar           1 <1>                0.0000
     31 C31          2.0211  -2.5491  -2.8403 C.ar           1 <1>                0.0000
     32 O32          1.5627  -1.7800  -1.8256 O.3            1 <1>                0.0000
     33 H33         -1.9568   3.4440  -0.4224 H              1 <1>                0.0000
     34 H34         -3.5731   3.3315  -1.1596 H              1 <1>                0.0000
     35 H35         -3.3870   3.1813   0.6042 H              1 <1>                0.0000
     36 H36         -3.7347   0.9609  -0.5225 H              1 <1>                0.0000
     37 H37         -2.6103   1.5118  -2.5888 H              1 <1>                0.0000
     38 H38         -1.0776   1.6754  -1.7232 H              1 <1>                0.0000
     39 H39         -2.5233  -0.9411  -1.4744 H              1 <1>                0.0000
     40 H40         -1.7032  -0.5671  -3.0200 H              1 <1>                0.0000
     41 H41         -0.7897  -2.2355  -0.0555 H              1 <1>                0.0000
     42 H42          0.3034  -0.9907   0.5873 H              1 <1>                0.0000
     43 H43         -2.7201  -0.9793   0.4307 H              1 <1>                0.0000
     44 H44         -1.6909  -0.7331   1.8393 H              1 <1>                0.0000
     45 H45         -1.9866   0.1037   3.5368 H              1 <1>                0.0000
     46 H46         -0.5629  -2.0731   5.2363 H              1 <1>                0.0000
     47 H47         -0.0594  -0.9105   6.4866 H              1 <1>                0.0000
     48 H48         -1.6821  -0.7938   5.7645 H              1 <1>                0.0000
     49 H49          1.9002  -0.1770   5.2663 H              1 <1>                0.0000
     50 H50          2.8022   1.3129   3.5328 H              1 <1>                0.0000
     51 H51          1.2839   4.1262  -1.0906 H              1 <1>                0.0000
     52 H52          3.6732   4.1459   0.1667 H              1 <1>                0.0000
     53 H53          0.3938  -3.3652  -5.7127 H              1 <1>                0.0000
     54 H54          4.3088  -4.4593  -4.4177 H              1 <1>                0.0000
     55 H55          4.0020  -3.1871  -2.3379 H              1 <1>                0.0000
@<TRIPOS>BOND
    1    1    2 1     
    2    1   33 1     
    3    1   34 1     
    4    1   35 1     
    5    2    8 1     
    6    2    3 1     
    7    2   36 1     
    8    3    4 1     
    9    3   37 1     
   10    3   38 1     
   11    4    5 1     
   12    4   39 1     
   13    4   40 1     
   14    5    6 1     
   15    5   23 1     
   16    6    7 1     
   17    6   41 1     
   18    6   42 1     
   19    7    8 1     
   20    7   43 1     
   21    7   44 1     
   22    8    9 am    
   23    9   10 2     
   24    9   11 1     
   25   11   17 ar    
   26   11   12 ar    
   27   12   13 ar    
   28   12   45 1     
   29   13   14 1     
   30   13   15 ar    
   31   14   46 1     
   32   14   47 1     
   33   14   48 1     
   34   15   16 ar    
   35   15   49 1     
   36   16   17 ar    
   37   16   50 1     
   38   17   18 1     
   39   18   22 1     
   40   18   19 1     
   41   19   20 2     
   42   20   21 1     
   43   20   51 1     
   44   21   22 2     
   45   21   52 1     
   46   23   32 1     
   47   23   24 2     
   48   24   25 1     
   49   25   31 ar    
   50   25   26 ar    
   51   26   27 ar    
   52   26   53 1     
   53   27   28 1     
   54   27   29 ar    
   55   29   30 ar    
   56   29   54 1     
   57   30   31 ar    
   58   30   55 1     
   59   31   32 1     
@<TRIPOS>SUBSTRUCTURE
      1 ****           1
