#       Name:                SZ4
#       Creating user name   gbret
#       Creation time:       Fri Sep  9 16:36:33 2016


#       File generated by GOLD software.
#

@<TRIPOS>MOLECULE
SZ4
    22    22     1
SMALL
NO_CHARGES


@<TRIPOS>ATOM
      1 C1           1.9992   3.1040   0.2428 C.3            1 <1>                0.0000
      2 O2           2.0186   1.6750   0.2349 O.3            1 <1>                0.0000
      3 C3           0.8162   1.0416   0.2430 C.ar           1 <1>                0.0000
      4 C4          -0.3583   1.7803   0.2524 C.ar           1 <1>                0.0000
      5 C5          -1.5791   1.1342   0.2601 C.ar           1 <1>                0.0000
      6 C6          -1.6313  -0.2477   0.2585 C.ar           1 <1>                0.0000
      7 C7          -0.4625  -0.9859   0.2496 C.ar           1 <1>                0.0000
      8 C8          -0.5231  -2.4916   0.2484 C.3            1 <1>                0.0000
      9 N9          -0.5524  -2.9794  -1.1370 N.4            1 <1>                0.0000
     10 H10         -1.3653  -2.6098  -1.6066 H              1 <1>                0.0000
     11 H11          0.2810  -2.6760  -1.6181 H              1 <1>                0.0000
     12 H12         -0.5930  -3.9877  -1.1378 H              1 <1>                0.0000
     13 C13          0.7611  -0.3443   0.2361 C.ar           1 <1>                0.0000
     14 H14          3.0218   3.4813   0.2350 H              1 <1>                0.0000
     15 H15          1.4720   3.4650  -0.6403 H              1 <1>                0.0000
     16 H16          1.4890   3.4554   1.1396 H              1 <1>                0.0000
     17 H17         -0.3180   2.8595   0.2540 H              1 <1>                0.0000
     18 H18         -2.4936   1.7087   0.2678 H              1 <1>                0.0000
     19 H19         -2.5868  -0.7511   0.2645 H              1 <1>                0.0000
     20 H20          0.3550  -2.8910   0.7557 H              1 <1>                0.0000
     21 H21         -1.4234  -2.8194   0.7681 H              1 <1>                0.0000
     22 H22          1.6739  -0.9215   0.2292 H              1 <1>                0.0000
@<TRIPOS>BOND
    1    1    2 1     
    2    1   14 1     
    3    1   15 1     
    4    1   16 1     
    5    2    3 1     
    6    3   13 ar    
    7    3    4 ar    
    8    4    5 ar    
    9    4   17 1     
   10    5    6 ar    
   11    5   18 1     
   12    6    7 ar    
   13    6   19 1     
   14    7    8 1     
   15    7   13 ar    
   16    8    9 1     
   17    8   20 1     
   18    8   21 1     
   19    9   10 1     
   20    9   11 1     
   21    9   12 1     
   22   13   22 1     
@<TRIPOS>SUBSTRUCTURE
      1 ****           1
@<TRIPOS>SET
DONOR_HYDROGENS      STATIC     ATOMS    <user>   **** ""
3 10 11 12
ATOM$RED        STATIC     ATOMS    COLORGROUP SYSTEM
3 10 11 12
