#       Name:                T28
#       Creating user name   gbret
#       Creation time:       Fri Sep  9 16:39:22 2016


#       File generated by GOLD software.
#

@<TRIPOS>MOLECULE
T28
    33    36     1
SMALL
NO_CHARGES


@<TRIPOS>ATOM
      1 N1          -2.1157   4.0646  -0.0684 N.pl3          1 <1>                0.0000
      2 C2          -2.0969   2.6806  -0.0760 C.ar           1 <1>                0.0000
      3 N3          -3.2464   2.0208  -0.0740 N.ar           1 <1>                0.0000
      4 C4          -3.2810   0.6942  -0.0489 C.ar           1 <1>                0.0000
      5 C5          -2.0915   0.0021  -0.0246 C.ar           1 <1>                0.0000
      6 C6          -2.0306  -1.4809   0.1652 C.3            1 <1>                0.0000
      7 C7          -1.7527  -2.2558  -1.1295 C.3            1 <1>                0.0000
      8 C8          -0.6381  -1.5583  -1.9147 C.3            1 <1>                0.0000
      9 C9           0.4716  -1.1128  -1.0060 C.2            1 <1>                0.0000
     10 N10          1.7111  -1.6649  -0.8708 N.pl3          1 <1>                0.0000
     11 H11          2.0295  -2.4414  -1.3572 H              1 <1>                0.0000
     12 C12          2.4407  -0.9642   0.0512 C.ar           1 <1>                0.0000
     13 C13          3.7386  -1.1322   0.5282 C.ar           1 <1>                0.0000
     14 C14          4.1837  -0.2302   1.4785 C.ar           1 <1>                0.0000
     15 C15          3.3866   0.8021   1.9468 C.ar           1 <1>                0.0000
     16 Br16         4.0856   1.9864   3.2448 Br             1 <1>                0.0000
     17 C17          2.0934   0.9912   1.4910 C.ar           1 <1>                0.0000
     18 C18          1.6235   0.0912   0.5328 C.ar           1 <1>                0.0000
     19 C19          0.3630  -0.0456  -0.1659 C.2            1 <1>                0.0000
     20 C20         -0.8931   0.7276  -0.0863 C.ar           1 <1>                0.0000
     21 N21         -0.9284   2.0515  -0.0905 N.ar           1 <1>                0.0000
     22 H22         -1.2823   4.5610  -0.0737 H              1 <1>                0.0000
     23 H23         -2.9622   4.5381  -0.0618 H              1 <1>                0.0000
     24 H24         -4.2242   0.1680  -0.0473 H              1 <1>                0.0000
     25 H25         -1.2429  -1.7084   0.8835 H              1 <1>                0.0000
     26 H26         -2.9817  -1.8190   0.5765 H              1 <1>                0.0000
     27 H27         -1.4435  -3.2721  -0.8853 H              1 <1>                0.0000
     28 H28         -2.6583  -2.2876  -1.7352 H              1 <1>                0.0000
     29 H29         -0.2370  -2.2496  -2.6558 H              1 <1>                0.0000
     30 H30         -1.0517  -0.6889  -2.4259 H              1 <1>                0.0000
     31 H31          4.3705  -1.9321   0.1714 H              1 <1>                0.0000
     32 H32          5.1854  -0.3343   1.8685 H              1 <1>                0.0000
     33 H33          1.4764   1.7973   1.8597 H              1 <1>                0.0000
@<TRIPOS>BOND
    1    1    2 1     
    2    1   22 1     
    3    1   23 1     
    4    2   21 ar    
    5    2    3 ar    
    6    3    4 ar    
    7    4    5 ar    
    8    4   24 1     
    9    5   20 ar    
   10    5    6 1     
   11    6    7 1     
   12    6   25 1     
   13    6   26 1     
   14    7    8 1     
   15    7   27 1     
   16    7   28 1     
   17    8    9 1     
   18    8   29 1     
   19    8   30 1     
   20    9   19 2     
   21    9   10 1     
   22   10   11 1     
   23   10   12 1     
   24   12   18 ar    
   25   12   13 ar    
   26   13   14 ar    
   27   13   31 1     
   28   14   15 ar    
   29   14   32 1     
   30   15   16 1     
   31   15   17 ar    
   32   17   18 ar    
   33   17   33 1     
   34   18   19 1     
   35   19   20 1     
   36   20   21 ar    
@<TRIPOS>SUBSTRUCTURE
      1 ****           1
@<TRIPOS>SET
DONOR_HYDROGENS      STATIC     ATOMS    <user>   **** ""
3 22 23 11
ATOM$RED        STATIC     ATOMS    COLORGROUP SYSTEM
3 22 23 11
