#       Name:                T3
#       Creating user name   installer
#       Creation time:       Mon Jun 30 19:24:37 2008


#       File generated by GOLD software.
#

@<TRIPOS>MOLECULE
T3
    35    36     1
SMALL
NO_CHARGES


@<TRIPOS>ATOM
      1 N1           4.9372   1.2505   2.0170 N.4            1 <1>                0.0000
      2 C2           5.4446  -0.0135   1.4669 C.3            1 <1>                0.0000
      3 C4           5.2300  -0.0331  -0.0479 C.3            1 <1>                0.0000
      4 C5           3.7528  -0.0331  -0.3460 C.ar           1 <1>                0.0000
      5 C6           3.0721  -1.2311  -0.4609 C.ar           1 <1>                0.0000
      6 C7           1.7174  -1.2341  -0.7342 C.ar           1 <1>                0.0000
      7 I8           0.6869  -3.0498  -0.9081 I              1 <1>                0.0000
      8 C9           1.0401  -0.0331  -0.8930 C.ar           1 <1>                0.0000
      9 O10         -0.2921  -0.0331  -1.1614 O.3            1 <1>                0.0000
     10 C11         -1.1548  -0.0112  -0.1108 C.ar           1 <1>                0.0000
     11 C12         -0.6664   0.0160   1.1876 C.ar           1 <1>                0.0000
     12 C13         -1.5427   0.0382   2.2549 C.ar           1 <1>                0.0000
     13 C14         -2.9112   0.0334   2.0291 C.ar           1 <1>                0.0000
     14 O15         -3.7738   0.0548   3.0801 O.3            1 <1>                0.0000
     15 C16         -3.4000   0.0071   0.7309 C.ar           1 <1>                0.0000
     16 I17         -5.4670   0.0011   0.3897 I              1 <1>                0.0000
     17 C18         -2.5233  -0.0103  -0.3371 C.ar           1 <1>                0.0000
     18 C19          1.7259   1.1679  -0.7767 C.ar           1 <1>                0.0000
     19 I20          0.7084   2.9837  -1.0146 I              1 <1>                0.0000
     20 C21          3.0797   1.1650  -0.4985 C.ar           1 <1>                0.0000
     21 C22          6.9162  -0.1374   1.7674 C.2            1 <1>                0.0000
     22 O23          7.5093  -1.3410   1.7326 O.co2          1 <1>                0.0000
     23 O24          7.5621   0.8468   2.0396 O.co2          1 <1>                0.0000
     24 H1           3.9529   1.3333   1.8160 H              1 <1>                0.0000
     25 H2           5.4318   2.0221   1.5975 H              1 <1>                0.0000
     26 H3           5.0785   1.2634   3.0149 H              1 <1>                0.0000
     27 H4           4.9048  -0.8555   1.9246 H              1 <1>                0.0000
     28 H5           5.6895  -0.9382  -0.4717 H              1 <1>                0.0000
     29 H6           5.6944   0.8579  -0.4956 H              1 <1>                0.0000
     30 H7           3.6015  -2.1688  -0.3365 H              1 <1>                0.0000
     31 H8           0.4031   0.0198   1.3643 H              1 <1>                0.0000
     32 H9          -1.1609   0.0594   3.2692 H              1 <1>                0.0000
     33 H10         -3.2823   0.0713   3.8929 H              1 <1>                0.0000
     34 H11         -2.9050  -0.0232  -1.3516 H              1 <1>                0.0000
     35 H12          3.6143   2.1028  -0.3998 H              1 <1>                0.0000
@<TRIPOS>BOND
    1    1    2 1     
    2    2    3 1     
    3    2   21 1     
    4    3    4 1     
    5    4   20 ar    
    6    4    5 ar    
    7    5    6 ar    
    8    6    7 1     
    9    6    8 ar    
   10    8    9 1     
   11    8   18 ar    
   12    9   10 1     
   13   10   17 ar    
   14   10   11 ar    
   15   11   12 ar    
   16   12   13 ar    
   17   13   14 1     
   18   13   15 ar    
   19   15   16 1     
   20   15   17 ar    
   21   18   19 1     
   22   18   20 ar    
   23   21   22 ar    
   24   21   23 ar    
   25    1   24 1     
   26    1   25 1     
   27    1   26 1     
   28    2   27 1     
   29    3   28 1     
   30    3   29 1     
   31    5   30 1     
   32   11   31 1     
   33   12   32 1     
   34   14   33 1     
   35   17   34 1     
   36   20   35 1     
@<TRIPOS>SUBSTRUCTURE
      1 ****           1
@<TRIPOS>SET
DONOR_HYDROGENS      STATIC     ATOMS    <user>   **** ""
4 24 25 26 33
ATOM$RED        STATIC     ATOMS    COLORGROUP SYSTEM
4 24 25 26 33
