#       Name:                T57
#       Creating user name   gbret
#       Creation time:       Fri Sep  9 16:42:13 2016


#       File generated by GOLD software.
#

@<TRIPOS>MOLECULE
T57
    83    83     1
SMALL
NO_CHARGES


@<TRIPOS>ATOM
      1 O1          11.9476  -7.0827  -0.1182 O.co2          1 <1>                0.0000
      2 C2          11.9310  -5.8636  -0.1115 C.2            1 <1>                0.0000
      3 O3          12.9785  -5.2397  -0.1181 O.co2          1 <1>                0.0000
      4 C4          10.6159  -5.1279  -0.1012 C.3            1 <1>                0.0000
      5 C5           9.4665  -6.1378  -0.1013 C.3            1 <1>                0.0000
      6 C6           8.1313  -5.3909  -0.0909 C.3            1 <1>                0.0000
      7 N7           7.9837  -4.6342  -1.3413 N.3            1 <1>                0.0000
      8 P8           7.1780  -3.1808  -1.0753 P.3            1 <1>                0.0000
      9 O9           7.9794  -2.3243  -0.0696 O.co2          1 <1>                0.0000
     10 O10          7.0425  -2.4152  -2.4104 O.co2          1 <1>                0.0000
     11 O11          5.7135  -3.4806  -0.4775 O.3            1 <1>                0.0000
     12 C12          4.6637  -4.0686  -1.2483 C.3            1 <1>                0.0000
     13 C13          3.4126  -4.2133  -0.3794 C.3            1 <1>                0.0000
     14 C14          2.2886  -4.8428  -1.2047 C.3            1 <1>                0.0000
     15 C15          1.0375  -4.9875  -0.3359 C.3            1 <1>                0.0000
     16 N16          0.5464  -3.6590   0.0382 N.am           1 <1>                0.0000
     17 C17         -0.1895  -3.5028   1.1565 C.2            1 <1>                0.0000
     18 O18         -0.4451  -4.4621   1.8531 O.2            1 <1>                0.0000
     19 C19         -0.6947  -2.1361   1.5413 C.3            1 <1>                0.0000
     20 C20         -1.4959  -2.2359   2.8409 C.3            1 <1>                0.0000
     21 C21         -2.0089  -0.8484   3.2315 C.3            1 <1>                0.0000
     22 N22         -2.9624  -0.3786   2.2234 N.am           1 <1>                0.0000
     23 C23         -3.1644   0.9428   2.0510 C.2            1 <1>                0.0000
     24 O24         -2.5568   1.7429   2.7304 O.2            1 <1>                0.0000
     25 C25         -4.1453   1.4260   1.0140 C.3            1 <1>                0.0000
     26 C26         -4.1849   2.9555   1.0230 C.3            1 <1>                0.0000
     27 C27         -5.1807   3.4461  -0.0298 C.3            1 <1>                0.0000
     28 C28         -5.2203   4.9756  -0.0208 C.3            1 <1>                0.0000
     29 C29         -6.2161   5.4663  -1.0736 C.3            1 <1>                0.0000
     30 N30         -6.2540   6.9307  -1.0650 N.am           1 <1>                0.0000
     31 C31         -7.0665   7.5889  -1.9153 C.2            1 <1>                0.0000
     32 O32         -7.7680   6.9672  -2.6895 O.2            1 <1>                0.0000
     33 C33         -7.1047   9.0656  -1.9066 C.ar           1 <1>                0.0000
     34 C34         -6.2957   9.7823  -1.0223 C.ar           1 <1>                0.0000
     35 C35         -6.3352  11.1601  -1.0183 C.ar           1 <1>                0.0000
     36 C36         -7.1767  11.8345  -1.8899 C.ar           1 <1>                0.0000
     37 F37         -7.2116  13.1850  -1.8819 F              1 <1>                0.0000
     38 C38         -7.9820  11.1278  -2.7700 C.ar           1 <1>                0.0000
     39 C39         -7.9457   9.7500  -2.7867 C.ar           1 <1>                0.0000
     40 C40         -2.6923  -0.9246   4.5725 C.2            1 <1>                0.0000
     41 O41         -2.0506  -0.7511   5.5945 O.co2          1 <1>                0.0000
     42 O42         -3.8870  -1.1599   4.6353 O.co2          1 <1>                0.0000
     43 C43         -0.0296  -5.7181  -1.1095 C.2            1 <1>                0.0000
     44 O44          0.1024  -6.9043  -1.3588 O.co2          1 <1>                0.0000
     45 O45         -1.0249  -5.1231  -1.4861 O.co2          1 <1>                0.0000
     46 C46          7.0025  -6.3816   0.0329 C.2            1 <1>                0.0000
     47 O47          6.8314  -6.9832   1.0795 O.co2          1 <1>                0.0000
     48 O48          6.2603  -6.5816  -0.9135 O.co2          1 <1>                0.0000
     49 H49         10.5538  -4.5069   0.7924 H              1 <1>                0.0000
     50 H50         10.5454  -4.4973  -0.9875 H              1 <1>                0.0000
     51 H51          9.5286  -6.7588  -0.9950 H              1 <1>                0.0000
     52 H52          9.5370  -6.7685   0.7850 H              1 <1>                0.0000
     53 H53          8.1060  -4.7037   0.7548 H              1 <1>                0.0000
     54 H54          8.8803  -4.4763  -1.7763 H              1 <1>                0.0000
     55 H55          4.4402  -3.4311  -2.1037 H              1 <1>                0.0000
     56 H56          4.9776  -5.0514  -1.5998 H              1 <1>                0.0000
     57 H57          3.6361  -4.8508   0.4760 H              1 <1>                0.0000
     58 H58          3.0987  -3.2305  -0.0279 H              1 <1>                0.0000
     59 H59          2.0651  -4.2053  -2.0601 H              1 <1>                0.0000
     60 H60          2.6025  -5.8257  -1.5562 H              1 <1>                0.0000
     61 H61          1.2836  -5.5507   0.5644 H              1 <1>                0.0000
     62 H62          0.7508  -2.8917  -0.5190 H              1 <1>                0.0000
     63 H63          0.1508  -1.4638   1.6864 H              1 <1>                0.0000
     64 H64         -1.3349  -1.7490   0.7486 H              1 <1>                0.0000
     65 H65         -2.3415  -2.9082   2.6957 H              1 <1>                0.0000
     66 H66         -0.8558  -2.6230   3.6336 H              1 <1>                0.0000
     67 H67         -1.1705  -0.1542   3.2900 H              1 <1>                0.0000
     68 H68         -3.4484  -1.0185   1.6801 H              1 <1>                0.0000
     69 H69         -3.8349   1.0764   0.0294 H              1 <1>                0.0000
     70 H70         -5.1371   1.0356   1.2421 H              1 <1>                0.0000
     71 H71         -4.4953   3.3051   2.0076 H              1 <1>                0.0000
     72 H72         -3.1931   3.3459   0.7949 H              1 <1>                0.0000
     73 H73         -4.8703   3.0965  -1.0144 H              1 <1>                0.0000
     74 H74         -6.1725   3.0557   0.1983 H              1 <1>                0.0000
     75 H75         -5.5307   5.3252   0.9638 H              1 <1>                0.0000
     76 H76         -4.2285   5.3661  -0.2490 H              1 <1>                0.0000
     77 H77         -5.9057   5.1166  -2.0582 H              1 <1>                0.0000
     78 H78         -7.2079   5.0758  -0.8455 H              1 <1>                0.0000
     79 H79         -5.6942   7.4267  -0.4473 H              1 <1>                0.0000
     80 H80         -5.6404   9.2579  -0.3425 H              1 <1>                0.0000
     81 H81         -5.7100  11.7153  -0.3348 H              1 <1>                0.0000
     82 H82         -8.6356  11.6580  -3.4469 H              1 <1>                0.0000
     83 H83         -8.5732   9.2006  -3.4728 H              1 <1>                0.0000
@<TRIPOS>BOND
    1    1    2 ar    
    2    2    3 ar    
    3    2    4 1     
    4    4    5 1     
    5    4   49 1     
    6    4   50 1     
    7    5    6 1     
    8    5   51 1     
    9    5   52 1     
   10    6    7 1     
   11    6   46 1     
   12    6   53 1     
   13    7    8 1     
   14    7   54 1     
   15    8    9 ar    
   16    8   10 ar    
   17    8   11 1     
   18   11   12 1     
   19   12   13 1     
   20   12   55 1     
   21   12   56 1     
   22   13   14 1     
   23   13   57 1     
   24   13   58 1     
   25   14   15 1     
   26   14   59 1     
   27   14   60 1     
   28   15   16 1     
   29   15   43 1     
   30   15   61 1     
   31   16   17 am    
   32   16   62 1     
   33   17   18 2     
   34   17   19 1     
   35   19   20 1     
   36   19   63 1     
   37   19   64 1     
   38   20   21 1     
   39   20   65 1     
   40   20   66 1     
   41   21   22 1     
   42   21   40 1     
   43   21   67 1     
   44   22   23 am    
   45   22   68 1     
   46   23   24 2     
   47   23   25 1     
   48   25   26 1     
   49   25   69 1     
   50   25   70 1     
   51   26   27 1     
   52   26   71 1     
   53   26   72 1     
   54   27   28 1     
   55   27   73 1     
   56   27   74 1     
   57   28   29 1     
   58   28   75 1     
   59   28   76 1     
   60   29   30 1     
   61   29   77 1     
   62   29   78 1     
   63   30   31 am    
   64   30   79 1     
   65   31   32 2     
   66   31   33 1     
   67   33   39 ar    
   68   33   34 ar    
   69   34   35 ar    
   70   34   80 1     
   71   35   36 ar    
   72   35   81 1     
   73   36   37 1     
   74   36   38 ar    
   75   38   39 ar    
   76   38   82 1     
   77   39   83 1     
   78   40   41 ar    
   79   40   42 ar    
   80   43   44 ar    
   81   43   45 ar    
   82   46   47 ar    
   83   46   48 ar    
@<TRIPOS>SUBSTRUCTURE
      1 ****           1
@<TRIPOS>SET
DONOR_HYDROGENS      STATIC     ATOMS    <user>   **** ""
4 54 62 68 79
ATOM$RED        STATIC     ATOMS    COLORGROUP SYSTEM
4 54 62 68 79
