#       Name:                TDF
#       Creating user name   gbret
#       Creation time:       Fri Sep  9 16:52:22 2016


#       File generated by GOLD software.
#

@<TRIPOS>MOLECULE
TDF
    26    26     1
SMALL
NO_CHARGES


@<TRIPOS>ATOM
      1 N1           2.4556  -0.7937   0.3630 N.4            1 <1>                0.0000
      2 H2           2.4693  -1.8026   0.3574 H              1 <1>                0.0000
      3 H3           3.4022  -0.4444   0.3558 H              1 <1>                0.0000
      4 H4           1.9676  -0.4594  -0.4545 H              1 <1>                0.0000
      5 C5           1.7680  -0.3199   1.5716 C.3            1 <1>                0.0000
      6 C6           0.3326  -0.8495   1.5824 C.3            1 <1>                0.0000
      7 C7          -0.4318  -0.2526   0.4290 C.ar           1 <1>                0.0000
      8 C8          -1.1105   0.9404   0.5932 C.ar           1 <1>                0.0000
      9 C9          -1.8117   1.4880  -0.4648 C.ar           1 <1>                0.0000
     10 C10         -1.8338   0.8428  -1.6871 C.ar           1 <1>                0.0000
     11 C11         -1.1543  -0.3497  -1.8516 C.ar           1 <1>                0.0000
     12 C12         -0.4496  -0.8951  -0.7948 C.ar           1 <1>                0.0000
     13 C13         -2.5990   1.4392  -2.8403 C.3            1 <1>                0.0000
     14 F14         -1.7589   2.2890  -3.5677 F              1 <1>                0.0000
     15 F15         -3.0605   0.4145  -3.6735 F              1 <1>                0.0000
     16 F16         -3.6881   2.1678  -2.3502 F              1 <1>                0.0000
     17 C17          2.4969  -0.8191   2.7925 C.2            1 <1>                0.0000
     18 O18          3.4965  -1.5059   2.6674 O.co2          1 <1>                0.0000
     19 O19          2.0870  -0.5363   3.9053 O.co2          1 <1>                0.0000
     20 H20          1.7532   0.7700   1.5776 H              1 <1>                0.0000
     21 H21          0.3452  -1.9352   1.4869 H              1 <1>                0.0000
     22 H22         -0.1497  -0.5728   2.5200 H              1 <1>                0.0000
     23 H23         -1.0933   1.4445   1.5482 H              1 <1>                0.0000
     24 H24         -2.3426   2.4197  -0.3363 H              1 <1>                0.0000
     25 H25         -1.1718  -0.8540  -2.8065 H              1 <1>                0.0000
     26 H26          0.0813  -1.8268  -0.9233 H              1 <1>                0.0000
@<TRIPOS>BOND
    1    1    2 1     
    2    1    3 1     
    3    1    4 1     
    4    1    5 1     
    5    5    6 1     
    6    5   17 1     
    7    5   20 1     
    8    6    7 1     
    9    6   21 1     
   10    6   22 1     
   11    7   12 ar    
   12    7    8 ar    
   13    8    9 ar    
   14    8   23 1     
   15    9   10 ar    
   16    9   24 1     
   17   10   11 ar    
   18   10   13 1     
   19   11   12 ar    
   20   11   25 1     
   21   12   26 1     
   22   13   14 1     
   23   13   15 1     
   24   13   16 1     
   25   17   18 ar    
   26   17   19 ar    
@<TRIPOS>SUBSTRUCTURE
      1 ****           1
@<TRIPOS>SET
DONOR_HYDROGENS      STATIC     ATOMS    <user>   **** ""
3 2 3 4
ATOM$RED        STATIC     ATOMS    COLORGROUP SYSTEM
3 2 3 4
