#       Name:                TED
#       Creating user name   gbret
#       Creation time:       Fri Sep  9 16:54:13 2016


#       File generated by GOLD software.
#

@<TRIPOS>MOLECULE
TED
    78    79     1
SMALL
NO_CHARGES


@<TRIPOS>ATOM
      1 O1          -2.8004   9.5663  -5.9124 O.3            1 <1>                0.0000
      2 C2          -2.1571   8.4508  -6.5319 C.3            1 <1>                0.0000
      3 C3          -1.3441   7.6274  -5.4961 C.3            1 <1>                0.0000
      4 C4          -2.4250   6.7093  -4.8863 C.3            1 <1>                0.0000
      5 O5          -3.5074   6.6347  -5.8214 O.3            1 <1>                0.0000
      6 C6          -3.1930   7.3968  -6.9977 C.3            1 <1>                0.0000
      7 C7          -4.4484   8.0871  -7.5345 C.3            1 <1>                0.0000
      8 O8          -5.3698   7.1014  -8.0050 O.3            1 <1>                0.0000
      9 P9          -6.8025   7.4720  -8.6391 P.3            1 <1>                0.0000
     10 O10         -6.5935   8.2614  -9.9761 O.co2          1 <1>                0.0000
     11 O11         -7.6015   6.1559  -8.9291 O.co2          1 <1>                0.0000
     12 O12         -7.6068   8.3593  -7.6290 O.co2          1 <1>                0.0000
     13 N13         -1.8711   5.3721  -4.6595 N.am           1 <1>                0.0000
     14 C14         -1.7597   4.9062  -3.3872 C.2            1 <1>                0.0000
     15 C15         -1.2372   3.6434  -3.1724 C.2            1 <1>                0.0000
     16 C16         -1.1007   3.1041  -1.8165 C.2            1 <1>                0.0000
     17 C17         -0.6172   1.8540  -1.6311 C.2            1 <1>                0.0000
     18 C18         -0.5915   1.2901  -0.3322 C.2            1 <1>                0.0000
     19 O19         -1.0046   1.9302   0.6177 O.2            1 <1>                0.0000
     20 N20         -0.1099   0.0449  -0.1475 N.am           1 <1>                0.0000
     21 C21         -0.0834  -0.5384   1.1960 C.3            1 <1>                0.0000
     22 C22          0.5060  -1.9487   1.1282 C.3            1 <1>                0.0000
     23 N23          0.5326  -2.5321   2.4718 N.am           1 <1>                0.0000
     24 C24          1.0142  -3.7772   2.6564 C.2            1 <1>                0.0000
     25 O25          1.4257  -4.4147   1.7103 O.2            1 <1>                0.0000
     26 C26          1.0415  -4.3773   4.0385 C.3            1 <1>                0.0000
     27 N27          1.6074  -5.7313   3.9734 N.3            1 <1>                0.0000
     28 C28          1.8702  -6.2574   5.3195 C.3            1 <1>                0.0000
     29 C29          3.0989  -5.5612   5.9083 C.3            1 <1>                0.0000
     30 N30          3.4249  -6.1606   7.2092 N.4            1 <1>                0.0000
     31 H31          2.6082  -6.1437   7.8015 H              1 <1>                0.0000
     32 C32          3.8588  -7.5503   7.0131 C.3            1 <1>                0.0000
     33 C33          5.0410  -7.5803   6.0790 C.2            1 <1>                0.0000
     34 O34          5.5445  -6.5369   5.6991 O.co2          1 <1>                0.0000
     35 O35          5.4941  -8.6480   5.7032 O.co2          1 <1>                0.0000
     36 C36          4.5060  -5.3950   7.8440 C.3            1 <1>                0.0000
     37 C37          4.7280  -5.9056   9.2443 C.2            1 <1>                0.0000
     38 O38          3.9653  -6.7286   9.7212 O.co2          1 <1>                0.0000
     39 O39          5.6703  -5.4956   9.9005 O.co2          1 <1>                0.0000
     40 C40          0.7281  -6.6336   3.2179 C.3            1 <1>                0.0000
     41 C41          1.4993  -7.8630   2.8119 C.2            1 <1>                0.0000
     42 O42          2.6706  -7.9804   3.1292 O.co2          1 <1>                0.0000
     43 O43          0.9519  -8.7403   2.1659 O.co2          1 <1>                0.0000
     44 C44         -0.8222   2.8565  -4.3469 C.2            1 <1>                0.0000
     45 O45         -0.3568   1.7401  -4.2146 O.2            1 <1>                0.0000
     46 N46         -0.9704   3.4014  -5.5727 N.am           1 <1>                0.0000
     47 H47         -0.7031   2.8992  -6.3584 H              1 <1>                0.0000
     48 C48         -1.4902   4.6327  -5.7130 C.2            1 <1>                0.0000
     49 O49         -1.6113   5.0957  -6.8304 O.2            1 <1>                0.0000
     50 H50         -2.1907  10.2512  -5.6052 H              1 <1>                0.0000
     51 H51         -1.5263   8.7743  -7.3599 H              1 <1>                0.0000
     52 H52         -0.5695   7.0402  -5.9893 H              1 <1>                0.0000
     53 H53         -0.9135   8.2782  -4.7351 H              1 <1>                0.0000
     54 H54         -2.7783   7.1291  -3.9444 H              1 <1>                0.0000
     55 H55         -2.7590   6.7517  -7.7616 H              1 <1>                0.0000
     56 H56         -4.9129   8.6675  -6.7374 H              1 <1>                0.0000
     57 H57         -4.1755   8.7505  -8.3553 H              1 <1>                0.0000
     58 H58         -2.0754   5.5155  -2.5531 H              1 <1>                0.0000
     59 H59         -1.3862   3.7044  -0.9653 H              1 <1>                0.0000
     60 H60         -0.2508   1.2863  -2.4736 H              1 <1>                0.0000
     61 H61          0.2192  -0.4650  -0.9043 H              1 <1>                0.0000
     62 H62          0.5312   0.0812   1.8491 H              1 <1>                0.0000
     63 H63         -1.0981  -0.5873   1.5910 H              1 <1>                0.0000
     64 H64         -0.1086  -2.5683   0.4751 H              1 <1>                0.0000
     65 H65          1.5208  -1.8998   0.7332 H              1 <1>                0.0000
     66 H66          0.2035  -2.0222   3.2285 H              1 <1>                0.0000
     67 H67          1.6561  -3.7577   4.6916 H              1 <1>                0.0000
     68 H68          0.0268  -4.4262   4.4335 H              1 <1>                0.0000
     69 H69          1.0064  -6.0709   5.9575 H              1 <1>                0.0000
     70 H70          2.0538  -7.3302   5.2609 H              1 <1>                0.0000
     71 H71          3.9442  -5.6815   5.2307 H              1 <1>                0.0000
     72 H72          2.8869  -4.5001   6.0400 H              1 <1>                0.0000
     73 H73          4.1432  -7.9810   7.9731 H              1 <1>                0.0000
     74 H74          3.0413  -8.1289   6.5831 H              1 <1>                0.0000
     75 H75          5.4222  -5.5118   7.2652 H              1 <1>                0.0000
     76 H76          4.2315  -4.3408   7.8809 H              1 <1>                0.0000
     77 H77         -0.1168  -6.9244   3.8422 H              1 <1>                0.0000
     78 H78          0.3628  -6.1231   2.3269 H              1 <1>                0.0000
@<TRIPOS>BOND
    1    1    2 1     
    2    1   50 1     
    3    2    6 1     
    4    2    3 1     
    5    2   51 1     
    6    3    4 1     
    7    3   52 1     
    8    3   53 1     
    9    4    5 1     
   10    4   13 1     
   11    4   54 1     
   12    5    6 1     
   13    6    7 1     
   14    6   55 1     
   15    7    8 1     
   16    7   56 1     
   17    7   57 1     
   18    8    9 1     
   19    9   10 ar    
   20    9   11 ar    
   21    9   12 ar    
   22   13   48 1     
   23   13   14 1     
   24   14   15 2     
   25   14   58 1     
   26   15   16 1     
   27   15   44 1     
   28   16   17 2     
   29   16   59 1     
   30   17   18 1     
   31   17   60 1     
   32   18   19 2     
   33   18   20 am    
   34   20   21 1     
   35   20   61 1     
   36   21   22 1     
   37   21   62 1     
   38   21   63 1     
   39   22   23 1     
   40   22   64 1     
   41   22   65 1     
   42   23   24 am    
   43   23   66 1     
   44   24   25 2     
   45   24   26 1     
   46   26   27 1     
   47   26   67 1     
   48   26   68 1     
   49   27   28 1     
   50   27   40 1     
   51   28   29 1     
   52   28   69 1     
   53   28   70 1     
   54   29   30 1     
   55   29   71 1     
   56   29   72 1     
   57   30   31 1     
   58   30   32 1     
   59   30   36 1     
   60   32   33 1     
   61   32   73 1     
   62   32   74 1     
   63   33   34 ar    
   64   33   35 ar    
   65   36   37 1     
   66   36   75 1     
   67   36   76 1     
   68   37   38 ar    
   69   37   39 ar    
   70   40   41 1     
   71   40   77 1     
   72   40   78 1     
   73   41   42 ar    
   74   41   43 ar    
   75   44   45 2     
   76   44   46 1     
   77   46   47 1     
   78   46   48 1     
   79   48   49 2     
@<TRIPOS>SUBSTRUCTURE
      1 ****           1
@<TRIPOS>SET
DONOR_HYDROGENS      STATIC     ATOMS    <user>   **** ""
5 50 61 66 31 47
ATOM$RED        STATIC     ATOMS    COLORGROUP SYSTEM
5 50 61 66 31 47
