#       Name:                TH5
#       Creating user name   gbret
#       Creation time:       Fri Sep  9 16:59:27 2016


#       File generated by GOLD software.
#

@<TRIPOS>MOLECULE
TH5
    22    21     1
SMALL
NO_CHARGES


@<TRIPOS>ATOM
      1 C1          -0.2685   1.8702   0.1929 C.3            1 <1>                0.0000
      2 C2          -0.2477   0.3403   0.1845 C.3            1 <1>                0.0000
      3 O3           0.4319  -0.1279  -1.0101 O.3            1 <1>                0.0000
      4 C4          -0.3242  -0.3353  -2.0996 C.2            1 <1>                0.0000
      5 C5           0.3115  -0.8214  -3.3766 C.3            1 <1>                0.0000
      6 O6          -1.5145  -0.1323  -2.0565 O.2            1 <1>                0.0000
      7 C7           0.4923  -0.1665   1.4240 C.3            1 <1>                0.0000
      8 N8          -0.1953   0.3072   2.6327 N.4            1 <1>                0.0000
      9 H9          -0.2090   1.3161   2.6382 H              1 <1>                0.0000
     10 H10         -1.1419  -0.0420   2.6398 H              1 <1>                0.0000
     11 H11          0.2927  -0.0270   3.4501 H              1 <1>                0.0000
     12 C12          0.5127  -1.6733   1.4158 C.2            1 <1>                0.0000
     13 O13          1.1919  -2.2693   0.5972 O.co2          1 <1>                0.0000
     14 O14         -0.1499  -2.2965   2.2276 O.co2          1 <1>                0.0000
     15 H15          0.7541   2.2475   0.1852 H              1 <1>                0.0000
     16 H16         -0.7957   2.2312  -0.6901 H              1 <1>                0.0000
     17 H17         -0.7787   2.2217   1.0897 H              1 <1>                0.0000
     18 H18         -1.2703  -0.0370   0.1923 H              1 <1>                0.0000
     19 H19          1.3835  -0.9466  -3.2240 H              1 <1>                0.0000
     20 H20         -0.1290  -1.7770  -3.6610 H              1 <1>                0.0000
     21 H21          0.1399  -0.0922  -4.1684 H              1 <1>                0.0000
     22 H22          1.5149   0.2108   1.4163 H              1 <1>                0.0000
@<TRIPOS>BOND
    1    1    2 1     
    2    1   15 1     
    3    1   16 1     
    4    1   17 1     
    5    2    3 1     
    6    2    7 1     
    7    2   18 1     
    8    3    4 1     
    9    4    5 1     
   10    4    6 2     
   11    5   19 1     
   12    5   20 1     
   13    5   21 1     
   14    7    8 1     
   15    7   12 1     
   16    7   22 1     
   17    8    9 1     
   18    8   10 1     
   19    8   11 1     
   20   12   13 ar    
   21   12   14 ar    
@<TRIPOS>SUBSTRUCTURE
      1 ****           1
@<TRIPOS>SET
DONOR_HYDROGENS      STATIC     ATOMS    <user>   **** ""
3 9 10 11
ATOM$RED        STATIC     ATOMS    COLORGROUP SYSTEM
3 9 10 11
