#       Name:                TM9
#       Creating user name   gbret
#       Creation time:       Fri Sep  9 17:06:31 2016


#       File generated by GOLD software.
#

@<TRIPOS>MOLECULE
TM9
    27    27     1
SMALL
NO_CHARGES


@<TRIPOS>ATOM
      1 N1           1.4732   1.2341  -1.3878 N.4            1 <1>                0.0000
      2 H2           1.1802   0.2999  -1.6320 H              1 <1>                0.0000
      3 H3           2.4467   1.2227  -1.1226 H              1 <1>                0.0000
      4 H4           1.3480   1.8442  -2.1816 H              1 <1>                0.0000
      5 C5           0.6648   1.7224  -0.2626 C.3            1 <1>                0.0000
      6 C6          -0.8211   1.5417  -0.5838 C.3            1 <1>                0.0000
      7 O7          -1.1359   2.2388  -1.7908 O.3            1 <1>                0.0000
      8 O8          -1.1058   0.1510  -0.7485 O.3            1 <1>                0.0000
      9 C9          -0.8494  -0.6388   0.4145 C.3            1 <1>                0.0000
     10 C10         -1.2153  -2.0972   0.1316 C.3            1 <1>                0.0000
     11 O11         -1.0532  -2.8687   1.3235 O.3            1 <1>                0.0000
     12 O12         -2.5746  -2.1717  -0.3028 O.3            1 <1>                0.0000
     13 C13          0.6353  -0.5457   0.7758 C.3            1 <1>                0.0000
     14 O14          1.4209  -1.0808  -0.2912 O.3            1 <1>                0.0000
     15 C15          1.0075   0.9234   0.9986 C.3            1 <1>                0.0000
     16 O16          2.4077   1.0269   1.2643 O.3            1 <1>                0.0000
     17 H17          0.8761   2.7783  -0.0935 H              1 <1>                0.0000
     18 H18         -1.4209   1.9413   0.2339 H              1 <1>                0.0000
     19 H19         -2.0632   2.1677  -2.0557 H              1 <1>                0.0000
     20 H20         -1.4498  -0.2680   1.2453 H              1 <1>                0.0000
     21 H21         -0.5627  -2.4909  -0.6476 H              1 <1>                0.0000
     22 H22         -1.6050  -2.5740   2.0609 H              1 <1>                0.0000
     23 H23         -2.8757  -3.0691  -0.5007 H              1 <1>                0.0000
     24 H24          0.8246  -1.1126   1.6873 H              1 <1>                0.0000
     25 H25          1.3069  -2.0316  -0.4251 H              1 <1>                0.0000
     26 H26          0.4444   1.3180   1.8444 H              1 <1>                0.0000
     27 H27          2.6966   0.5381   2.0471 H              1 <1>                0.0000
@<TRIPOS>BOND
    1    1    2 1     
    2    1    3 1     
    3    1    4 1     
    4    1    5 1     
    5    5   15 1     
    6    5    6 1     
    7    5   17 1     
    8    6    7 1     
    9    6    8 1     
   10    6   18 1     
   11    7   19 1     
   12    8    9 1     
   13    9   10 1     
   14    9   13 1     
   15    9   20 1     
   16   10   11 1     
   17   10   12 1     
   18   10   21 1     
   19   11   22 1     
   20   12   23 1     
   21   13   14 1     
   22   13   15 1     
   23   13   24 1     
   24   14   25 1     
   25   15   16 1     
   26   15   26 1     
   27   16   27 1     
@<TRIPOS>SUBSTRUCTURE
      1 ****           1
@<TRIPOS>SET
DONOR_HYDROGENS      STATIC     ATOMS    <user>   **** ""
8 2 3 4 19 22 23 25 27
ATOM$RED        STATIC     ATOMS    COLORGROUP SYSTEM
8 2 3 4 19 22 23 25 27
