#       Name:                TPO
#       Creating user name   gbret
#       Creation time:       Fri Sep  9 17:12:53 2016


#       File generated by GOLD software.
#

@<TRIPOS>MOLECULE
TPO
    20    19     1
SMALL
NO_CHARGES


@<TRIPOS>ATOM
      1 C1           0.2903   1.9254   0.0127 C.3            1 <1>                0.0000
      2 C2           0.3111   0.3955   0.0043 C.3            1 <1>                0.0000
      3 O3           1.0022  -0.0778   1.1620 O.3            1 <1>                0.0000
      4 P4           2.3276  -0.9883   1.0809 P.3            1 <1>                0.0000
      5 O5           3.4891  -0.1629   0.4298 O.co2          1 <1>                0.0000
      6 O6           2.7465  -1.4306   2.5242 O.co2          1 <1>                0.0000
      7 O7           2.0367  -2.2575   0.2096 O.co2          1 <1>                0.0000
      8 C8          -1.1243  -0.1340   0.0152 C.3            1 <1>                0.0000
      9 N9          -1.8348   0.3526  -1.1749 N.4            1 <1>                0.0000
     10 H10         -1.3625   0.0272  -2.0051 H              1 <1>                0.0000
     11 H11         -2.7814   0.0033  -1.1678 H              1 <1>                0.0000
     12 H12         -1.8485   1.3615  -1.1694 H              1 <1>                0.0000
     13 C13         -1.1039  -1.6409   0.0069 C.2            1 <1>                0.0000
     14 O14         -0.7251  -2.2508   0.9923 O.co2          1 <1>                0.0000
     15 O15         -1.4662  -2.2500  -0.9852 O.co2          1 <1>                0.0000
     16 H16          1.3129   2.3027   0.0050 H              1 <1>                0.0000
     17 H17         -0.2369   2.2864  -0.8703 H              1 <1>                0.0000
     18 H18         -0.2199   2.2769   0.9095 H              1 <1>                0.0000
     19 H19          0.8213   0.0440  -0.8925 H              1 <1>                0.0000
     20 H20         -1.6345   0.2175   0.9120 H              1 <1>                0.0000
@<TRIPOS>BOND
    1    1    2 1     
    2    1   16 1     
    3    1   17 1     
    4    1   18 1     
    5    2    3 1     
    6    2    8 1     
    7    2   19 1     
    8    3    4 1     
    9    4    5 ar    
   10    4    6 ar    
   11    4    7 ar    
   12    8    9 1     
   13    8   13 1     
   14    8   20 1     
   15    9   10 1     
   16    9   11 1     
   17    9   12 1     
   18   13   14 ar    
   19   13   15 ar    
@<TRIPOS>SUBSTRUCTURE
      1 ****           1
@<TRIPOS>SET
DONOR_HYDROGENS      STATIC     ATOMS    <user>   **** ""
3 10 11 12
ATOM$RED        STATIC     ATOMS    COLORGROUP SYSTEM
3 10 11 12
