#       Name:                TQV
#       Creating user name   gbret
#       Creation time:       Fri Sep  9 17:14:40 2016


#       File generated by GOLD software.
#

@<TRIPOS>MOLECULE
TQV
    34    35     1
SMALL
NO_CHARGES


@<TRIPOS>ATOM
      1 C1          -1.1434   0.7029  -3.5400 C.3            1 <1>                0.0000
      2 C2          -1.1229  -0.8040  -3.5483 C.ar           1 <1>                0.0000
      3 C3          -1.1193  -1.4888  -4.7483 C.ar           1 <1>                0.0000
      4 C4          -1.1010  -2.8711  -4.7565 C.ar           1 <1>                0.0000
      5 C5          -1.0859  -3.5719  -3.5645 C.ar           1 <1>                0.0000
      6 C6          -1.0891  -2.8919  -2.3622 C.ar           1 <1>                0.0000
      7 C7          -1.1020  -1.5045  -2.3512 C.ar           1 <1>                0.0000
      8 O8          -1.1047  -0.8332  -1.1696 O.3            1 <1>                0.0000
      9 P9           0.3183  -0.8273  -0.4166 P.3            1 <1>                0.0000
     10 O10          0.6878  -2.2692  -0.0025 O.co2          1 <1>                0.0000
     11 O11          1.4018  -0.2709  -1.3672 O.co2          1 <1>                0.0000
     12 O12          0.2274   0.1013   0.8955 O.3            1 <1>                0.0000
     13 C13          1.3561   0.3940   1.7215 C.3            1 <1>                0.0000
     14 C14          0.9284   1.2850   2.8592 C.ar           1 <1>                0.0000
     15 C15         -0.3912   1.6793   2.9701 C.ar           1 <1>                0.0000
     16 C16         -0.7841   2.4971   4.0132 C.ar           1 <1>                0.0000
     17 C17          0.1419   2.9221   4.9483 C.ar           1 <1>                0.0000
     18 C18          1.4621   2.5304   4.8420 C.ar           1 <1>                0.0000
     19 C19          1.8579   1.7054   3.7990 C.ar           1 <1>                0.0000
     20 O20          3.1563   1.3181   3.6925 O.3            1 <1>                0.0000
     21 H21         -0.1208   1.0802  -3.5477 H              1 <1>                0.0000
     22 H22         -1.6705   1.0640  -4.4231 H              1 <1>                0.0000
     23 H23         -1.6536   1.0544  -2.6432 H              1 <1>                0.0000
     24 H24         -1.1310  -0.9438  -5.6806 H              1 <1>                0.0000
     25 H25         -1.0989  -3.4046  -5.6956 H              1 <1>                0.0000
     26 H26         -1.0721  -4.6518  -3.5736 H              1 <1>                0.0000
     27 H27         -1.0773  -3.4397  -1.4315 H              1 <1>                0.0000
     28 H28          1.7646  -0.5343   2.1209 H              1 <1>                0.0000
     29 H29          2.1179   0.9012   1.1294 H              1 <1>                0.0000
     30 H30         -1.1162   1.3487   2.2412 H              1 <1>                0.0000
     31 H31         -1.8159   2.8048   4.0978 H              1 <1>                0.0000
     32 H32         -0.1675   3.5612   5.7621 H              1 <1>                0.0000
     33 H33          2.1849   2.8626   5.5725 H              1 <1>                0.0000
     34 H34          3.3610   0.4959   4.1585 H              1 <1>                0.0000
@<TRIPOS>BOND
    1    1    2 1     
    2    1   21 1     
    3    1   22 1     
    4    1   23 1     
    5    2    7 ar    
    6    2    3 ar    
    7    3    4 ar    
    8    3   24 1     
    9    4    5 ar    
   10    4   25 1     
   11    5    6 ar    
   12    5   26 1     
   13    6    7 ar    
   14    6   27 1     
   15    7    8 1     
   16    8    9 1     
   17    9   10 ar    
   18    9   11 ar    
   19    9   12 1     
   20   12   13 1     
   21   13   14 1     
   22   13   28 1     
   23   13   29 1     
   24   14   19 ar    
   25   14   15 ar    
   26   15   16 ar    
   27   15   30 1     
   28   16   17 ar    
   29   16   31 1     
   30   17   18 ar    
   31   17   32 1     
   32   18   19 ar    
   33   18   33 1     
   34   19   20 1     
   35   20   34 1     
@<TRIPOS>SUBSTRUCTURE
      1 ****           1
@<TRIPOS>SET
DONOR_HYDROGENS      STATIC     ATOMS    <user>   **** ""
1 34
ATOM$RED        STATIC     ATOMS    COLORGROUP SYSTEM
1 34
