#       Name:                TRZ
#       Creating user name   gbret
#       Creation time:       Fri Sep  9 17:17:00 2016


#       File generated by GOLD software.
#

@<TRIPOS>MOLECULE
TRZ
    50    51     1
SMALL
NO_CHARGES


@<TRIPOS>ATOM
      1 C1          -2.0375   3.4137  -0.8078 C.3            1 <1>                0.0000
      2 C2          -1.5581   1.9640  -0.7100 C.3            1 <1>                0.0000
      3 C3          -1.0371   1.5059  -2.0736 C.3            1 <1>                0.0000
      4 C4          -0.4346   1.8670   0.3240 C.3            1 <1>                0.0000
      5 C5          -0.9877   2.1248   1.7416 C.3            1 <1>                0.0000
      6 C6          -2.4670   1.7431   1.8258 C.3            1 <1>                0.0000
      7 C7          -0.1278   1.1823   2.6098 C.3            1 <1>                0.0000
      8 C8           1.0987   1.9245   3.1442 C.3            1 <1>                0.0000
      9 C9          -0.9565   0.6248   3.7689 C.3            1 <1>                0.0000
     10 C10          0.2978   0.0650   1.6805 C.ar           1 <1>                0.0000
     11 C11          0.7993  -1.1961   1.9679 C.ar           1 <1>                0.0000
     12 C12          1.1259  -2.0656   0.9510 C.ar           1 <1>                0.0000
     13 C13          1.6702  -3.4339   1.2715 C.3            1 <1>                0.0000
     14 C14          0.9501  -1.6743  -0.3803 C.ar           1 <1>                0.0000
     15 C15          0.4443  -0.4033  -0.6643 C.ar           1 <1>                0.0000
     16 C16          0.1212   0.4593   0.3654 C.ar           1 <1>                0.0000
     17 C17          1.2962  -2.5953  -1.4748 C.2            1 <1>                0.0000
     18 O18          1.6286  -3.7346  -1.2263 O.2            1 <1>                0.0000
     19 C19          1.2376  -2.1223  -2.9045 C.3            1 <1>                0.0000
     20 C20          1.6419  -3.2659  -3.8370 C.3            1 <1>                0.0000
     21 C21          1.5832  -2.7930  -5.2667 C.2            1 <1>                0.0000
     22 O22          1.2490  -1.6474  -5.5165 O.co2          1 <1>                0.0000
     23 O23          1.8699  -3.5559  -6.1734 O.co2          1 <1>                0.0000
     24 H24         -1.1899   4.0625  -1.0285 H              1 <1>                0.0000
     25 H25         -2.7772   3.4988  -1.6039 H              1 <1>                0.0000
     26 H26         -2.4869   3.7125   0.1392 H              1 <1>                0.0000
     27 H27         -2.3882   1.3266  -0.4054 H              1 <1>                0.0000
     28 H28         -0.0061   1.8368  -2.1985 H              1 <1>                0.0000
     29 H29         -1.0793   0.4183  -2.1321 H              1 <1>                0.0000
     30 H30         -1.6549   1.9363  -2.8619 H              1 <1>                0.0000
     31 H31          0.3566   2.5793   0.0899 H              1 <1>                0.0000
     32 H32         -0.8407   3.1652   2.0315 H              1 <1>                0.0000
     33 H33         -2.5967   0.7150   1.4876 H              1 <1>                0.0000
     34 H34         -2.8069   1.8318   2.8576 H              1 <1>                0.0000
     35 H35         -3.0511   2.4105   1.1922 H              1 <1>                0.0000
     36 H36          0.7757   2.7709   3.7504 H              1 <1>                0.0000
     37 H37          1.6958   1.2472   3.7548 H              1 <1>                0.0000
     38 H38          1.6985   2.2843   2.3082 H              1 <1>                0.0000
     39 H39         -1.8060   0.0680   3.3733 H              1 <1>                0.0000
     40 H40         -0.3368  -0.0383   4.3726 H              1 <1>                0.0000
     41 H41         -1.3170   1.4475   4.3864 H              1 <1>                0.0000
     42 H42          0.9349  -1.4979   2.9959 H              1 <1>                0.0000
     43 H43          0.8611  -4.1636   1.2387 H              1 <1>                0.0000
     44 H44          2.4317  -3.7026   0.5394 H              1 <1>                0.0000
     45 H45          2.1113  -3.4251   2.2682 H              1 <1>                0.0000
     46 H46          0.3061  -0.0947  -1.6900 H              1 <1>                0.0000
     47 H47          0.2224  -1.8029  -3.1402 H              1 <1>                0.0000
     48 H48          1.9223  -1.2849  -3.0385 H              1 <1>                0.0000
     49 H49          2.6570  -3.5853  -3.6013 H              1 <1>                0.0000
     50 H50          0.9571  -4.1034  -3.7030 H              1 <1>                0.0000
@<TRIPOS>BOND
    1    1    2 1     
    2    1   24 1     
    3    1   25 1     
    4    1   26 1     
    5    2    3 1     
    6    2    4 1     
    7    2   27 1     
    8    3   28 1     
    9    3   29 1     
   10    3   30 1     
   11    4   16 1     
   12    4    5 1     
   13    4   31 1     
   14    5    6 1     
   15    5    7 1     
   16    5   32 1     
   17    6   33 1     
   18    6   34 1     
   19    6   35 1     
   20    7    8 1     
   21    7    9 1     
   22    7   10 1     
   23    8   36 1     
   24    8   37 1     
   25    8   38 1     
   26    9   39 1     
   27    9   40 1     
   28    9   41 1     
   29   10   16 ar    
   30   10   11 ar    
   31   11   12 ar    
   32   11   42 1     
   33   12   13 1     
   34   12   14 ar    
   35   13   43 1     
   36   13   44 1     
   37   13   45 1     
   38   14   15 ar    
   39   14   17 1     
   40   15   16 ar    
   41   15   46 1     
   42   17   18 2     
   43   17   19 1     
   44   19   20 1     
   45   19   47 1     
   46   19   48 1     
   47   20   21 1     
   48   20   49 1     
   49   20   50 1     
   50   21   22 ar    
   51   21   23 ar    
@<TRIPOS>SUBSTRUCTURE
      1 ****           1
