#       Name:                TSY
#       Creating user name   gbret
#       Creation time:       Fri Sep  9 17:19:09 2016


#       File generated by GOLD software.
#

@<TRIPOS>MOLECULE
TSY
    16    15     1
SMALL
NO_CHARGES


@<TRIPOS>ATOM
      1 N1           1.2696   0.1743  -0.3749 N.4            1 <1>                0.0000
      2 H2           1.1322  -0.8252  -0.3699 H              1 <1>                0.0000
      3 H3           2.2495   0.3797  -0.2490 H              1 <1>                0.0000
      4 H4           0.9574   0.5524  -1.2568 H              1 <1>                0.0000
      5 C5           0.4979   0.7803   0.7184 C.3            1 <1>                0.0000
      6 C6          -0.9546   0.3057   0.6413 C.3            1 <1>                0.0000
      7 S7          -1.7049   0.9026  -0.8986 S.3            1 <1>                0.0000
      8 S8          -0.9409  -0.3741  -2.3089 S.3            1 <1>                0.0000
      9 S9          -2.3999  -1.8046  -2.4745 S.3            1 <1>                0.0000
     10 C10          1.0915   0.3681   2.0408 C.2            1 <1>                0.0000
     11 O11          2.0671  -0.3626   2.0698 O.co2          1 <1>                0.0000
     12 O12          0.5963   0.7654   3.0816 O.co2          1 <1>                0.0000
     13 H13          0.5307   1.8660   0.6280 H              1 <1>                0.0000
     14 H14         -0.9824  -0.7838   0.6606 H              1 <1>                0.0000
     15 H15         -1.5108   0.6985   1.4925 H              1 <1>                0.0000
     16 H16         -1.8987  -2.6422  -3.3998 H              1 <1>                0.0000
@<TRIPOS>BOND
    1    1    2 1     
    2    1    3 1     
    3    1    4 1     
    4    1    5 1     
    5    5    6 1     
    6    5   10 1     
    7    5   13 1     
    8    6    7 1     
    9    6   14 1     
   10    6   15 1     
   11    7    8 1     
   12    8    9 1     
   13    9   16 1     
   14   10   11 ar    
   15   10   12 ar    
@<TRIPOS>SUBSTRUCTURE
      1 ****           1
@<TRIPOS>SET
DONOR_HYDROGENS      STATIC     ATOMS    <user>   **** ""
3 2 3 4
ATOM$RED        STATIC     ATOMS    COLORGROUP SYSTEM
3 2 3 4
