#       Name:                TT1
#       Creating user name   gbret
#       Creation time:       Fri Sep  9 17:19:16 2016


#       File generated by GOLD software.
#

@<TRIPOS>MOLECULE
TT1
    42    45     1
SMALL
NO_CHARGES


@<TRIPOS>ATOM
      1 Cl1         -4.6984  -1.3399  -2.1586 Cl             1 <1>                0.0000
      2 C2          -4.7220   0.3959  -2.1490 C.ar           1 <1>                0.0000
      3 C3          -5.9293   1.0717  -2.1281 C.ar           1 <1>                0.0000
      4 C4          -5.9474   2.4534  -2.1200 C.ar           1 <1>                0.0000
      5 C5          -4.7595   3.1608  -2.1333 C.ar           1 <1>                0.0000
      6 C6          -3.5531   2.4863  -2.1542 C.ar           1 <1>                0.0000
      7 C7          -3.5337   1.1041  -2.1566 C.ar           1 <1>                0.0000
      8 C8          -2.2184   0.3689  -2.1789 C.3            1 <1>                0.0000
      9 S9          -1.6642   0.0721  -0.4816 S.3            1 <1>                0.0000
     10 C10         -0.1521  -0.7753  -0.7973 C.2            1 <1>                0.0000
     11 N11          0.3505  -1.0584  -1.9774 N.2            1 <1>                0.0000
     12 N12          1.4660  -1.6825  -1.8455 N.2            1 <1>                0.0000
     13 C13          1.7458  -1.8370  -0.5701 C.2            1 <1>                0.0000
     14 C14          2.9333  -2.5007  -0.0084 C.2            1 <1>                0.0000
     15 C15          4.0581  -2.7988  -0.6945 C.2            1 <1>                0.0000
     16 C16          5.0377  -3.4215   0.0496 C.2            1 <1>                0.0000
     17 C17          4.7262  -3.6346   1.3318 C.2            1 <1>                0.0000
     18 S18          3.1112  -3.0220   1.6620 S.3            1 <1>                0.0000
     19 N19          0.7195  -1.2552   0.1407 N.pl3          1 <1>                0.0000
     20 C20          0.5854  -1.1749   1.5973 C.3            1 <1>                0.0000
     21 C21          1.2381   0.0898   2.0929 C.ar           1 <1>                0.0000
     22 C22          2.5755   0.0862   2.4425 C.ar           1 <1>                0.0000
     23 C23          3.1742   1.2463   2.8971 C.ar           1 <1>                0.0000
     24 C24          2.4356   2.4101   3.0017 C.ar           1 <1>                0.0000
     25 C25          1.0983   2.4139   2.6512 C.ar           1 <1>                0.0000
     26 C26          0.5008   1.2549   2.1925 C.ar           1 <1>                0.0000
     27 H27         -6.8574   0.5193  -2.1184 H              1 <1>                0.0000
     28 H28         -6.8897   2.9810  -2.1037 H              1 <1>                0.0000
     29 H29         -4.7741   4.2406  -2.1277 H              1 <1>                0.0000
     30 H30         -2.6255   3.0394  -2.1646 H              1 <1>                0.0000
     31 H31         -2.3438  -0.5845  -2.6922 H              1 <1>                0.0000
     32 H32         -1.4754   0.9693  -2.7039 H              1 <1>                0.0000
     33 H33          4.1804  -2.5680  -1.7424 H              1 <1>                0.0000
     34 H34          5.9870  -3.7159  -0.3728 H              1 <1>                0.0000
     35 H35          5.3709  -4.1086   2.0571 H              1 <1>                0.0000
     36 H36         -0.4712  -1.1675   1.8651 H              1 <1>                0.0000
     37 H37          1.0701  -2.0373   2.0549 H              1 <1>                0.0000
     38 H38          3.1524  -0.8231   2.3609 H              1 <1>                0.0000
     39 H39          4.2188   1.2433   3.1710 H              1 <1>                0.0000
     40 H40          2.9032   3.3163   3.3575 H              1 <1>                0.0000
     41 H41          0.5213   3.3231   2.7332 H              1 <1>                0.0000
     42 H42         -0.5439   1.2578   1.9187 H              1 <1>                0.0000
@<TRIPOS>BOND
    1    1    2 1     
    2    2    7 ar    
    3    2    3 ar    
    4    3    4 ar    
    5    3   27 1     
    6    4    5 ar    
    7    4   28 1     
    8    5    6 ar    
    9    5   29 1     
   10    6    7 ar    
   11    6   30 1     
   12    7    8 1     
   13    8    9 1     
   14    8   31 1     
   15    8   32 1     
   16    9   10 1     
   17   10   19 1     
   18   10   11 2     
   19   11   12 1     
   20   12   13 2     
   21   13   14 1     
   22   13   19 1     
   23   14   18 1     
   24   14   15 2     
   25   15   16 1     
   26   15   33 1     
   27   16   17 2     
   28   16   34 1     
   29   17   18 1     
   30   17   35 1     
   31   19   20 1     
   32   20   21 1     
   33   20   36 1     
   34   20   37 1     
   35   21   26 ar    
   36   21   22 ar    
   37   22   23 ar    
   38   22   38 1     
   39   23   24 ar    
   40   23   39 1     
   41   24   25 ar    
   42   24   40 1     
   43   25   26 ar    
   44   25   41 1     
   45   26   42 1     
@<TRIPOS>SUBSTRUCTURE
      1 ****           1
