#       Name:                TW5
#       Creating user name   gbret
#       Creation time:       Fri Sep  9 17:22:21 2016


#       File generated by GOLD software.
#

@<TRIPOS>MOLECULE
TW5
    73    78     1
SMALL
NO_CHARGES


@<TRIPOS>ATOM
      1 F1          -1.0695  -3.4396  -0.1827 F              1 <1>                0.0000
      2 C2          -1.0885  -2.0887  -0.1809 C.ar           1 <1>                0.0000
      3 C3          -2.2915  -1.4129  -0.1600 C.ar           1 <1>                0.0000
      4 C4          -2.3059  -0.0222  -0.1584 C.ar           1 <1>                0.0000
      5 C5          -1.1093   0.6906  -0.1778 C.ar           1 <1>                0.0000
      6 C6           0.0852   0.0297  -0.1990 C.ar           1 <1>                0.0000
      7 C7           0.1128  -1.3686  -0.1945 C.ar           1 <1>                0.0000
      8 C8           1.4019  -2.0823  -0.2175 C.2            1 <1>                0.0000
      9 O9           1.4239  -3.2982  -0.2136 O.2            1 <1>                0.0000
     10 N10          2.5565  -1.3875  -0.2428 N.am           1 <1>                0.0000
     11 C11          3.8380  -2.0970  -0.2656 C.3            1 <1>                0.0000
     12 C12          4.9051  -1.2024  -0.8997 C.3            1 <1>                0.0000
     13 C13          4.5598  -0.9564  -2.3458 C.2            1 <1>                0.0000
     14 C14          5.0120  -1.6481  -3.4036 C.2            1 <1>                0.0000
     15 N15          4.4814  -1.1370  -4.5566 N.pl3          1 <1>                0.0000
     16 H16          4.6615  -1.4716  -5.4491 H              1 <1>                0.0000
     17 C17          3.6538  -0.0770  -4.2614 C.ar           1 <1>                0.0000
     18 C18          2.8817   0.7807  -5.0384 C.ar           1 <1>                0.0000
     19 C19          2.1416   1.7724  -4.4332 C.ar           1 <1>                0.0000
     20 C20          2.1576   1.9259  -3.0535 C.ar           1 <1>                0.0000
     21 C21          2.9087   1.0948  -2.2714 C.ar           1 <1>                0.0000
     22 C22          3.6619   0.0790  -2.8634 C.ar           1 <1>                0.0000
     23 C23          4.2455  -2.4436   1.1432 C.2            1 <1>                0.0000
     24 O24          3.5354  -2.1289   2.0746 O.2            1 <1>                0.0000
     25 N25          5.3991  -3.1032   1.3681 N.am           1 <1>                0.0000
     26 C26          5.8249  -3.3381   2.6761 C.ar           1 <1>                0.0000
     27 C27          4.9059  -3.5991   3.6912 C.ar           1 <1>                0.0000
     28 C28          5.3675  -3.8262   4.9712 C.ar           1 <1>                0.0000
     29 N29          6.6593  -3.7985   5.2394 N.ar           1 <1>                0.0000
     30 C30          7.5601  -3.5550   4.3062 C.ar           1 <1>                0.0000
     31 C31          7.1806  -3.3236   3.0002 C.ar           1 <1>                0.0000
     32 N32         -3.5182   0.6586  -0.1377 N.3            1 <1>                0.0000
     33 C33         -4.3322   0.2498   1.0155 C.3            1 <1>                0.0000
     34 C34         -5.6865   0.9605   0.9582 C.3            1 <1>                0.0000
     35 N35         -5.4740   2.4146   0.9562 N.3            1 <1>                0.0000
     36 C36         -4.6600   2.8234  -0.1971 C.3            1 <1>                0.0000
     37 C37         -3.3057   2.1127  -0.1397 C.3            1 <1>                0.0000
     38 C38         -6.6924   3.0988   0.9769 C.ar           1 <1>                0.0000
     39 C39         -7.8873   2.3912   1.0016 C.ar           1 <1>                0.0000
     40 C40         -9.0899   3.0700   1.0226 C.ar           1 <1>                0.0000
     41 C41         -9.1051   4.4537   1.0185 C.ar           1 <1>                0.0000
     42 Cl42       -10.6186   5.3036   1.0448 Cl             1 <1>                0.0000
     43 C43         -7.9161   5.1612   0.9938 C.ar           1 <1>                0.0000
     44 C44         -6.7105   4.4876   0.9786 C.ar           1 <1>                0.0000
     45 H45         -3.2207  -1.9632  -0.1453 H              1 <1>                0.0000
     46 H46         -1.1265   1.7705  -0.1764 H              1 <1>                0.0000
     47 H47          1.0100   0.5873  -0.2147 H              1 <1>                0.0000
     48 H48          2.5390  -0.4177  -0.2459 H              1 <1>                0.0000
     49 H49          3.7366  -3.0116  -0.8499 H              1 <1>                0.0000
     50 H50          4.9442  -0.2513  -0.3686 H              1 <1>                0.0000
     51 H51          5.8758  -1.6940  -0.8365 H              1 <1>                0.0000
     52 H52          5.6942  -2.4839  -3.3522 H              1 <1>                0.0000
     53 H53          2.8629   0.6696  -6.1125 H              1 <1>                0.0000
     54 H54          1.5432   2.4375  -5.0381 H              1 <1>                0.0000
     55 H55          1.5719   2.7088  -2.5948 H              1 <1>                0.0000
     56 H56          2.9162   1.2201  -1.1987 H              1 <1>                0.0000
     57 H57          5.9333  -3.4146   0.6208 H              1 <1>                0.0000
     58 H58          3.8473  -3.6229   3.4787 H              1 <1>                0.0000
     59 H59          4.6626  -4.0289   5.7640 H              1 <1>                0.0000
     60 H60          8.6080  -3.5412   4.5673 H              1 <1>                0.0000
     61 H61          7.9229  -3.1250   2.2413 H              1 <1>                0.0000
     62 H62         -4.4862  -0.8289   0.9878 H              1 <1>                0.0000
     63 H63         -3.8182   0.5206   1.9377 H              1 <1>                0.0000
     64 H64         -6.2122   0.6685   0.0490 H              1 <1>                0.0000
     65 H65         -6.2810   0.6810   1.8280 H              1 <1>                0.0000
     66 H66         -5.1741   2.5526  -1.1193 H              1 <1>                0.0000
     67 H67         -4.5061   3.9021  -0.1694 H              1 <1>                0.0000
     68 H68         -2.7800   2.4047   0.7694 H              1 <1>                0.0000
     69 H69         -2.7113   2.3922  -1.0096 H              1 <1>                0.0000
     70 H70         -7.8761   1.3113   1.0041 H              1 <1>                0.0000
     71 H71        -10.0194   2.5203   1.0418 H              1 <1>                0.0000
     72 H72         -7.9308   6.2411   0.9907 H              1 <1>                0.0000
     73 H73         -5.7828   5.0403   0.9597 H              1 <1>                0.0000
@<TRIPOS>BOND
    1    1    2 1     
    2    2    7 ar    
    3    2    3 ar    
    4    3    4 ar    
    5    3   45 1     
    6    4    5 ar    
    7    4   32 1     
    8    5    6 ar    
    9    5   46 1     
   10    6    7 ar    
   11    6   47 1     
   12    7    8 1     
   13    8    9 2     
   14    8   10 am    
   15   10   11 1     
   16   10   48 1     
   17   11   12 1     
   18   11   23 1     
   19   11   49 1     
   20   12   13 1     
   21   12   50 1     
   22   12   51 1     
   23   13   22 1     
   24   13   14 2     
   25   14   15 1     
   26   14   52 1     
   27   15   16 1     
   28   15   17 1     
   29   17   22 ar    
   30   17   18 ar    
   31   18   19 ar    
   32   18   53 1     
   33   19   20 ar    
   34   19   54 1     
   35   20   21 ar    
   36   20   55 1     
   37   21   22 ar    
   38   21   56 1     
   39   23   24 2     
   40   23   25 am    
   41   25   26 1     
   42   25   57 1     
   43   26   31 ar    
   44   26   27 ar    
   45   27   28 ar    
   46   27   58 1     
   47   28   29 ar    
   48   28   59 1     
   49   29   30 ar    
   50   30   31 ar    
   51   30   60 1     
   52   31   61 1     
   53   32   37 1     
   54   32   33 1     
   55   33   34 1     
   56   33   62 1     
   57   33   63 1     
   58   34   35 1     
   59   34   64 1     
   60   34   65 1     
   61   35   36 1     
   62   35   38 1     
   63   36   37 1     
   64   36   66 1     
   65   36   67 1     
   66   37   68 1     
   67   37   69 1     
   68   38   44 ar    
   69   38   39 ar    
   70   39   40 ar    
   71   39   70 1     
   72   40   41 ar    
   73   40   71 1     
   74   41   42 1     
   75   41   43 ar    
   76   43   44 ar    
   77   43   72 1     
   78   44   73 1     
@<TRIPOS>SUBSTRUCTURE
      1 ****           1
@<TRIPOS>SET
DONOR_HYDROGENS      STATIC     ATOMS    <user>   **** ""
3 48 16 57
ATOM$RED        STATIC     ATOMS    COLORGROUP SYSTEM
3 48 16 57
