#       Name:                TX3
#       Creating user name   gbret
#       Creation time:       Fri Sep  9 17:22:50 2016


#       File generated by GOLD software.
#

@<TRIPOS>MOLECULE
TX3
    45    47     1
SMALL
NO_CHARGES


@<TRIPOS>ATOM
      1 C1           0.5523   2.8862  -3.6811 C.3            1 <1>                0.0000
      2 C2           0.8230   1.4044  -3.7248 C.ar           1 <1>                0.0000
      3 C3           0.7241   0.7183  -4.9177 C.ar           1 <1>                0.0000
      4 C4           0.9724  -0.6421  -4.9596 C.ar           1 <1>                0.0000
      5 C5           1.3217  -1.3240  -3.8071 C.ar           1 <1>                0.0000
      6 C6           1.4246  -0.6504  -2.6079 C.ar           1 <1>                0.0000
      7 C7           1.1801   0.7237  -2.5593 C.ar           1 <1>                0.0000
      8 C8           1.2885   1.4517  -1.2786 C.2            1 <1>                0.0000
      9 O9           1.1856   2.6620  -1.2573 O.2            1 <1>                0.0000
     10 O10          1.5014   0.7735  -0.1343 O.3            1 <1>                0.0000
     11 C11          1.5911   1.5042   1.0085 C.ar           1 <1>                0.0000
     12 C12          2.8227   1.9864   1.4306 C.ar           1 <1>                0.0000
     13 Br13         4.3777   1.6275   0.4162 Br             1 <1>                0.0000
     14 C14          2.9110   2.7293   2.5925 C.ar           1 <1>                0.0000
     15 C15          1.7733   2.9920   3.3348 C.ar           1 <1>                0.0000
     16 Br16         1.8971   4.0084   4.9246 Br             1 <1>                0.0000
     17 C17          0.5454   2.5127   2.9154 C.ar           1 <1>                0.0000
     18 C18          0.4515   1.7739   1.7515 C.ar           1 <1>                0.0000
     19 C19         -0.8868   1.2521   1.2957 C.3            1 <1>                0.0000
     20 N20         -1.0121  -0.1599   1.6655 N.am           1 <1>                0.0000
     21 C21         -2.1338  -0.8404   1.3569 C.2            1 <1>                0.0000
     22 O22         -3.0416  -0.2824   0.7717 O.2            1 <1>                0.0000
     23 C23         -2.2603  -2.2646   1.7300 C.ar           1 <1>                0.0000
     24 C24         -1.2220  -2.9071   2.4073 C.ar           1 <1>                0.0000
     25 C25         -1.3465  -4.2362   2.7530 C.ar           1 <1>                0.0000
     26 C26         -2.4972  -4.9344   2.4299 C.ar           1 <1>                0.0000
     27 C27         -3.5299  -4.3058   1.7588 C.ar           1 <1>                0.0000
     28 C28         -3.4215  -2.9729   1.4117 C.ar           1 <1>                0.0000
     29 Cl29        -4.7188  -2.1845   0.5698 Cl             1 <1>                0.0000
     30 H30          1.4950   3.4298  -3.7440 H              1 <1>                0.0000
     31 H31         -0.0842   3.1642  -4.5212 H              1 <1>                0.0000
     32 H32          0.0502   3.1364  -2.7466 H              1 <1>                0.0000
     33 H33          0.4520   1.2443  -5.8208 H              1 <1>                0.0000
     34 H34          0.8928  -1.1744  -5.8959 H              1 <1>                0.0000
     35 H35          1.5138  -2.3860  -3.8467 H              1 <1>                0.0000
     36 H36          1.6973  -1.1838  -1.7093 H              1 <1>                0.0000
     37 H37          3.8687   3.1048   2.9215 H              1 <1>                0.0000
     38 H38         -0.3413   2.7190   3.4965 H              1 <1>                0.0000
     39 H39         -1.6819   1.8247   1.7732 H              1 <1>                0.0000
     40 H40         -0.9664   1.3526   0.2132 H              1 <1>                0.0000
     41 H41         -0.2878  -0.6051   2.1325 H              1 <1>                0.0000
     42 H42         -0.3231  -2.3643   2.6597 H              1 <1>                0.0000
     43 H43         -0.5439  -4.7338   3.2769 H              1 <1>                0.0000
     44 H44         -2.5888  -5.9753   2.7030 H              1 <1>                0.0000
     45 H45         -4.4247  -4.8567   1.5092 H              1 <1>                0.0000
@<TRIPOS>BOND
    1    1    2 1     
    2    1   30 1     
    3    1   31 1     
    4    1   32 1     
    5    2    7 ar    
    6    2    3 ar    
    7    3    4 ar    
    8    3   33 1     
    9    4    5 ar    
   10    4   34 1     
   11    5    6 ar    
   12    5   35 1     
   13    6    7 ar    
   14    6   36 1     
   15    7    8 1     
   16    8    9 2     
   17    8   10 1     
   18   10   11 1     
   19   11   18 ar    
   20   11   12 ar    
   21   12   13 1     
   22   12   14 ar    
   23   14   15 ar    
   24   14   37 1     
   25   15   16 1     
   26   15   17 ar    
   27   17   18 ar    
   28   17   38 1     
   29   18   19 1     
   30   19   20 1     
   31   19   39 1     
   32   19   40 1     
   33   20   21 am    
   34   20   41 1     
   35   21   22 2     
   36   21   23 1     
   37   23   28 ar    
   38   23   24 ar    
   39   24   25 ar    
   40   24   42 1     
   41   25   26 ar    
   42   25   43 1     
   43   26   27 ar    
   44   26   44 1     
   45   27   28 ar    
   46   27   45 1     
   47   28   29 1     
@<TRIPOS>SUBSTRUCTURE
      1 ****           1
@<TRIPOS>SET
DONOR_HYDROGENS      STATIC     ATOMS    <user>   **** ""
1 41
ATOM$RED        STATIC     ATOMS    COLORGROUP SYSTEM
1 41
