#       Name:                TZ5
#       Creating user name   gbret
#       Creation time:       Fri Sep  9 17:26:40 2016


#       File generated by GOLD software.
#

@<TRIPOS>MOLECULE
TZ5
    96   103     1
SMALL
NO_CHARGES


@<TRIPOS>ATOM
      1 N1          -7.3809   1.1540  -5.7810 N.pl3          1 <1>                0.0000
      2 C2          -6.3994   2.0818  -5.4259 C.ar           1 <1>                0.0000
      3 C3          -6.7101   3.4430  -5.4037 C.ar           1 <1>                0.0000
      4 C4          -5.7675   4.3690  -5.0599 C.ar           1 <1>                0.0000
      5 C5          -4.4792   3.9536  -4.7262 C.ar           1 <1>                0.0000
      6 C6          -4.1532   2.5770  -4.7448 C.ar           1 <1>                0.0000
      7 C7          -5.1306   1.6436  -5.0941 C.ar           1 <1>                0.0000
      8 C8          -2.7905   2.1755  -4.3892 C.ar           1 <1>                0.0000
      9 C9          -2.4235   0.7412  -4.4007 C.ar           1 <1>                0.0000
     10 C10         -1.3923   0.2887  -5.2242 C.ar           1 <1>                0.0000
     11 C11         -1.0550  -1.0491  -5.2304 C.ar           1 <1>                0.0000
     12 C12         -1.7373  -1.9413  -4.4226 C.ar           1 <1>                0.0000
     13 C13         -2.7608  -1.4988  -3.6036 C.ar           1 <1>                0.0000
     14 C14         -3.1035  -0.1624  -3.5838 C.ar           1 <1>                0.0000
     15 N15         -1.8906   3.0733  -4.0608 N.pl3          1 <1>                0.0000
     16 C16         -0.5433   2.6131  -3.7154 C.3            1 <1>                0.0000
     17 C17         -0.4558   2.3788  -2.2059 C.3            1 <1>                0.0000
     18 C18          0.9821   2.0170  -1.8285 C.3            1 <1>                0.0000
     19 C19          1.0696   1.7827  -0.3191 C.3            1 <1>                0.0000
     20 C20          2.5075   1.4209   0.0583 C.3            1 <1>                0.0000
     21 C21          2.5951   1.1866   1.5677 C.3            1 <1>                0.0000
     22 C22          4.0114   0.8302   1.9394 C.2            1 <1>                0.0000
     23 C23          5.0230   1.6895   2.2043 C.2            1 <1>                0.0000
     24 N24          6.0942   0.9396   2.4866 N.2            1 <1>                0.0000
     25 N25          5.7675  -0.3017   2.4021 N.2            1 <1>                0.0000
     26 N26          4.5260  -0.4132   2.0813 N.pl3          1 <1>                0.0000
     27 C27          3.7976  -1.6702   1.8930 C.3            1 <1>                0.0000
     28 C28          3.1837  -2.1083   3.2242 C.3            1 <1>                0.0000
     29 N29          2.4533  -3.3688   3.0354 N.3            1 <1>                0.0000
     30 C30          1.9826  -3.8563   4.2450 C.ar           1 <1>                0.0000
     31 C31          2.6977  -4.8188   4.9516 C.ar           1 <1>                0.0000
     32 C32          3.9849  -5.3129   4.3463 C.3            1 <1>                0.0000
     33 C33          4.8397  -6.0142   5.4000 C.3            1 <1>                0.0000
     34 C34          3.9688  -7.0563   6.1115 C.3            1 <1>                0.0000
     35 C35          2.9445  -6.3222   6.9735 C.3            1 <1>                0.0000
     36 C36          2.2096  -5.2862   6.1590 C.ar           1 <1>                0.0000
     37 N37          1.0676  -4.8360   6.6509 N.pl3          1 <1>                0.0000
     38 H38          0.7545  -5.1879   7.4988 H              1 <1>                0.0000
     39 C39          0.3296  -3.9167   6.0270 C.ar           1 <1>                0.0000
     40 C40         -0.8808  -3.4578   6.5753 C.ar           1 <1>                0.0000
     41 C41         -1.6092  -2.5175   5.9133 C.ar           1 <1>                0.0000
     42 C42         -1.1753  -1.9985   4.6958 C.ar           1 <1>                0.0000
     43 C43         -0.0076  -2.4199   4.1342 C.ar           1 <1>                0.0000
     44 C44          0.7691  -3.3835   4.7917 C.ar           1 <1>                0.0000
     45 C45         -2.1420   4.3908  -4.0258 C.ar           1 <1>                0.0000
     46 C46         -1.1276   5.2911  -3.6647 C.ar           1 <1>                0.0000
     47 C47         -1.3921   6.6450  -3.6315 C.ar           1 <1>                0.0000
     48 N48         -0.3814   7.5382  -3.2720 N.pl3          1 <1>                0.0000
     49 C49         -2.6614   7.1303  -3.9545 C.ar           1 <1>                0.0000
     50 C50         -3.6620   6.2730  -4.3078 C.ar           1 <1>                0.0000
     51 C51         -3.4224   4.8981  -4.3489 C.ar           1 <1>                0.0000
     52 H52         -7.1711   0.2070  -5.7941 H              1 <1>                0.0000
     53 H53         -8.2736   1.4562  -6.0107 H              1 <1>                0.0000
     54 H54         -7.7074   3.7671  -5.6618 H              1 <1>                0.0000
     55 H55         -6.0188   5.4193  -5.0468 H              1 <1>                0.0000
     56 H56         -4.8959   0.5896  -5.1125 H              1 <1>                0.0000
     57 H57         -0.8595   0.9841  -5.8559 H              1 <1>                0.0000
     58 H58         -0.2569  -1.4007  -5.8675 H              1 <1>                0.0000
     59 H59         -1.4700  -2.9877  -4.4315 H              1 <1>                0.0000
     60 H60         -3.2899  -2.2001  -2.9755 H              1 <1>                0.0000
     61 H61         -3.9027   0.1819  -2.9441 H              1 <1>                0.0000
     62 H62         -0.3317   1.6817  -4.2405 H              1 <1>                0.0000
     63 H63          0.1851   3.3691  -4.0086 H              1 <1>                0.0000
     64 H64         -0.7522   3.2861  -1.6796 H              1 <1>                0.0000
     65 H65         -1.1214   1.5624  -1.9258 H              1 <1>                0.0000
     66 H66          1.2785   1.1097  -2.3549 H              1 <1>                0.0000
     67 H67          1.6477   2.8335  -2.1087 H              1 <1>                0.0000
     68 H68          0.7732   2.6900   0.2072 H              1 <1>                0.0000
     69 H69          0.4041   0.9663  -0.0390 H              1 <1>                0.0000
     70 H70          2.8040   0.5136  -0.4680 H              1 <1>                0.0000
     71 H71          3.1731   2.2373  -0.2219 H              1 <1>                0.0000
     72 H72          2.2987   2.0939   2.0940 H              1 <1>                0.0000
     73 H73          1.9295   0.3701   1.8479 H              1 <1>                0.0000
     74 H74          4.9750   2.7683   2.1902 H              1 <1>                0.0000
     75 H75          3.0058  -1.5248   1.1581 H              1 <1>                0.0000
     76 H76          4.4848  -2.4389   1.5394 H              1 <1>                0.0000
     77 H77          3.9755  -2.2537   3.9591 H              1 <1>                0.0000
     78 H78          2.4965  -1.3396   3.5778 H              1 <1>                0.0000
     79 H79          1.7001  -3.2547   2.3738 H              1 <1>                0.0000
     80 H80          3.7584  -6.0137   3.5427 H              1 <1>                0.0000
     81 H81          4.5386  -4.4669   3.9392 H              1 <1>                0.0000
     82 H82          5.6840  -6.5079   4.9189 H              1 <1>                0.0000
     83 H83          5.2036  -5.2842   6.1230 H              1 <1>                0.0000
     84 H84          3.4534  -7.6694   5.3723 H              1 <1>                0.0000
     85 H85          4.5944  -7.6869   6.7432 H              1 <1>                0.0000
     86 H86          2.2281  -7.0412   7.3710 H              1 <1>                0.0000
     87 H87          3.4569  -5.8315   7.8009 H              1 <1>                0.0000
     88 H88         -1.2317  -3.8501   7.5184 H              1 <1>                0.0000
     89 H89         -2.5385  -2.1687   6.3387 H              1 <1>                0.0000
     90 H90         -1.7719  -1.2533   4.1906 H              1 <1>                0.0000
     91 H91          0.3197  -2.0105   3.1899 H              1 <1>                0.0000
     92 H92         -0.1430   4.9252  -3.4133 H              1 <1>                0.0000
     93 H93          0.5018   7.2062  -3.0471 H              1 <1>                0.0000
     94 H94         -0.5623   8.4908  -3.2472 H              1 <1>                0.0000
     95 H95         -2.8524   8.1928  -3.9240 H              1 <1>                0.0000
     96 H96         -4.6402   6.6580  -4.5555 H              1 <1>                0.0000
@<TRIPOS>BOND
    1    1    2 1     
    2    1   52 1     
    3    1   53 1     
    4    2    7 ar    
    5    2    3 ar    
    6    3    4 ar    
    7    3   54 1     
    8    4    5 ar    
    9    4   55 1     
   10    5   51 ar    
   11    5    6 ar    
   12    6    7 ar    
   13    6    8 ar    
   14    7   56 1     
   15    8    9 1     
   16    8   15 ar    
   17    9   14 ar    
   18    9   10 ar    
   19   10   11 ar    
   20   10   57 1     
   21   11   12 ar    
   22   11   58 1     
   23   12   13 ar    
   24   12   59 1     
   25   13   14 ar    
   26   13   60 1     
   27   14   61 1     
   28   15   16 1     
   29   15   45 ar    
   30   16   17 1     
   31   16   62 1     
   32   16   63 1     
   33   17   18 1     
   34   17   64 1     
   35   17   65 1     
   36   18   19 1     
   37   18   66 1     
   38   18   67 1     
   39   19   20 1     
   40   19   68 1     
   41   19   69 1     
   42   20   21 1     
   43   20   70 1     
   44   20   71 1     
   45   21   22 1     
   46   21   72 1     
   47   21   73 1     
   48   22   26 1     
   49   22   23 2     
   50   23   24 1     
   51   23   74 1     
   52   24   25 2     
   53   25   26 1     
   54   26   27 1     
   55   27   28 1     
   56   27   75 1     
   57   27   76 1     
   58   28   29 1     
   59   28   77 1     
   60   28   78 1     
   61   29   30 1     
   62   29   79 1     
   63   30   44 ar    
   64   30   31 ar    
   65   31   36 ar    
   66   31   32 1     
   67   32   33 1     
   68   32   80 1     
   69   32   81 1     
   70   33   34 1     
   71   33   82 1     
   72   33   83 1     
   73   34   35 1     
   74   34   84 1     
   75   34   85 1     
   76   35   36 1     
   77   35   86 1     
   78   35   87 1     
   79   36   37 ar    
   80   37   38 1     
   81   37   39 ar    
   82   39   44 ar    
   83   39   40 ar    
   84   40   41 ar    
   85   40   88 1     
   86   41   42 ar    
   87   41   89 1     
   88   42   43 ar    
   89   42   90 1     
   90   43   44 ar    
   91   43   91 1     
   92   45   51 ar    
   93   45   46 ar    
   94   46   47 ar    
   95   46   92 1     
   96   47   48 1     
   97   47   49 ar    
   98   48   93 1     
   99   48   94 1     
  100   49   50 ar    
  101   49   95 1     
  102   50   51 ar    
  103   50   96 1     
@<TRIPOS>SUBSTRUCTURE
      1 ****           1
@<TRIPOS>SET
DONOR_HYDROGENS      STATIC     ATOMS    <user>   **** ""
6 52 53 79 38 93 94
ATOM$RED        STATIC     ATOMS    COLORGROUP SYSTEM
6 52 53 79 38 93 94
