#       Name:                U01
#       Creating user name   gbret
#       Creation time:       Fri Sep  9 17:27:45 2016


#       File generated by GOLD software.
#

@<TRIPOS>MOLECULE
U01
    39    41     1
SMALL
NO_CHARGES


@<TRIPOS>ATOM
      1 C1           2.5891   2.5167   0.5638 C.3            1 <1>                0.0000
      2 C2           2.0303   1.0938   0.6267 C.3            1 <1>                0.0000
      3 C3           2.1910   0.5451   2.0459 C.3            1 <1>                0.0000
      4 C4           0.5471   1.1113   0.2517 C.3            1 <1>                0.0000
      5 C5           0.4015   1.4678  -1.2053 C.ar           1 <1>                0.0000
      6 C6           1.0168   0.6933  -2.1710 C.ar           1 <1>                0.0000
      7 C7           0.8833   1.0196  -3.5074 C.ar           1 <1>                0.0000
      8 C8           0.1338   2.1214  -3.8786 C.ar           1 <1>                0.0000
      9 Br9         -0.0499   2.5680  -5.7069 Br             1 <1>                0.0000
     10 C10         -0.4817   2.8961  -2.9120 C.ar           1 <1>                0.0000
     11 C11         -0.3519   2.5660  -1.5761 C.ar           1 <1>                0.0000
     12 C12         -0.0494  -0.2506   0.4976 C.2            1 <1>                0.0000
     13 C13         -1.3390  -0.3661   0.9380 C.2            1 <1>                0.0000
     14 O14         -2.0999   0.7298   1.1604 O.co2          1 <1>                0.0000
     15 C15         -1.8739  -1.7181   1.1623 C.ar           1 <1>                0.0000
     16 C16         -3.1824  -1.9100   1.6110 C.ar           1 <1>                0.0000
     17 C17         -3.6527  -3.1888   1.8106 C.ar           1 <1>                0.0000
     18 C18         -2.8337  -4.2820   1.5686 C.ar           1 <1>                0.0000
     19 C19         -1.5398  -4.1064   1.1253 C.ar           1 <1>                0.0000
     20 C20         -1.0458  -2.8250   0.9171 C.ar           1 <1>                0.0000
     21 O21          0.2188  -2.6353   0.4827 O.3            1 <1>                0.0000
     22 C22          0.7141  -1.4056   0.2702 C.2            1 <1>                0.0000
     23 O23          1.8621  -1.2891  -0.1221 O.2            1 <1>                0.0000
     24 H24          3.6458   2.5042   0.8310 H              1 <1>                0.0000
     25 H25          2.4746   2.9076  -0.4473 H              1 <1>                0.0000
     26 H26          2.0451   3.1520   1.2627 H              1 <1>                0.0000
     27 H27          2.5743   0.4585  -0.0722 H              1 <1>                0.0000
     28 H28          1.4518   1.0073   2.7000 H              1 <1>                0.0000
     29 H29          2.0435  -0.5348   2.0368 H              1 <1>                0.0000
     30 H30          3.1924   0.7719   2.4119 H              1 <1>                0.0000
     31 H31          0.0271   1.8511   0.8604 H              1 <1>                0.0000
     32 H32          1.6023  -0.1667  -1.8811 H              1 <1>                0.0000
     33 H33          1.3643   0.4146  -4.2618 H              1 <1>                0.0000
     34 H34         -1.0670   3.7564  -3.2013 H              1 <1>                0.0000
     35 H35         -0.8324   3.1708  -0.8213 H              1 <1>                0.0000
     36 H36         -3.8216  -1.0604   1.8008 H              1 <1>                0.0000
     37 H37         -4.6640  -3.3414   2.1576 H              1 <1>                0.0000
     38 H38         -3.2130  -5.2803   1.7292 H              1 <1>                0.0000
     39 H39         -0.9107  -4.9646   0.9404 H              1 <1>                0.0000
@<TRIPOS>BOND
    1    1    2 1     
    2    1   24 1     
    3    1   25 1     
    4    1   26 1     
    5    2    3 1     
    6    2    4 1     
    7    2   27 1     
    8    3   28 1     
    9    3   29 1     
   10    3   30 1     
   11    4    5 1     
   12    4   12 1     
   13    4   31 1     
   14    5   11 ar    
   15    5    6 ar    
   16    6    7 ar    
   17    6   32 1     
   18    7    8 ar    
   19    7   33 1     
   20    8    9 1     
   21    8   10 ar    
   22   10   11 ar    
   23   10   34 1     
   24   11   35 1     
   25   12   22 1     
   26   12   13 2     
   27   13   14 ar    
   28   13   15 1     
   29   15   20 ar    
   30   15   16 ar    
   31   16   17 ar    
   32   16   36 1     
   33   17   18 ar    
   34   17   37 1     
   35   18   19 ar    
   36   18   38 1     
   37   19   20 ar    
   38   19   39 1     
   39   20   21 1     
   40   21   22 1     
   41   22   23 2     
@<TRIPOS>SUBSTRUCTURE
      1 ****           1
