#       Name:                U2Z
#       Creating user name   gbret
#       Creation time:       Fri Sep  9 17:30:12 2016


#       File generated by GOLD software.
#

@<TRIPOS>MOLECULE
U2Z
    32    33     1
SMALL
NO_CHARGES


@<TRIPOS>ATOM
      1 C1           1.3940   2.0030  -1.2440 C.3            1 <1>                0.0000
      2 C2           0.3676   0.9076  -1.3770 C.2            1 <1>                0.0000
      3 C3          -0.0065   0.2997  -2.5267 C.2            1 <1>                0.0000
      4 C4          -0.9789  -0.6558  -2.2121 C.2            1 <1>                0.0000
      5 C5          -1.6730  -1.5657  -3.1927 C.3            1 <1>                0.0000
      6 O6          -1.1855  -1.3060  -4.5107 O.3            1 <1>                0.0000
      7 N7          -1.1821  -0.6235  -0.9196 N.2            1 <1>                0.0000
      8 N8          -0.3407   0.3515  -0.3683 N.pl3          1 <1>                0.0000
      9 C9          -0.2539   0.6950   0.9880 C.ar           1 <1>                0.0000
     10 C10         -0.3640   2.0233   1.3776 C.ar           1 <1>                0.0000
     11 C11         -0.2785   2.3586   2.7145 C.ar           1 <1>                0.0000
     12 C12         -0.0835   1.3731   3.6650 C.ar           1 <1>                0.0000
     13 C13          0.0264   0.0497   3.2802 C.ar           1 <1>                0.0000
     14 C14         -0.0635  -0.2925   1.9448 C.ar           1 <1>                0.0000
     15 C15          0.0566  -1.7352   1.5262 C.3            1 <1>                0.0000
     16 N16          1.4159  -1.9899   1.0310 N.4            1 <1>                0.0000
     17 H17          1.4963  -2.9558   0.7507 H              1 <1>                0.0000
     18 H18          1.6027  -1.3932   0.2390 H              1 <1>                0.0000
     19 H19          2.0825  -1.7956   1.7631 H              1 <1>                0.0000
     20 H20          2.3597   1.5669  -0.9885 H              1 <1>                0.0000
     21 H21          1.4765   2.5403  -2.1888 H              1 <1>                0.0000
     22 H22          1.0882   2.6940  -0.4585 H              1 <1>                0.0000
     23 H23          0.3775   0.5146  -3.5130 H              1 <1>                0.0000
     24 H24         -1.4726  -2.6042  -2.9293 H              1 <1>                0.0000
     25 H25         -2.7471  -1.3832  -3.1601 H              1 <1>                0.0000
     26 H26         -1.5894  -1.8569  -5.1951 H              1 <1>                0.0000
     27 H27         -0.5159   2.7934   0.6358 H              1 <1>                0.0000
     28 H28         -0.3637   3.3916   3.0181 H              1 <1>                0.0000
     29 H29         -0.0167   1.6378   4.7099 H              1 <1>                0.0000
     30 H30          0.1790  -0.7177   4.0246 H              1 <1>                0.0000
     31 H31         -0.1452  -2.3798   2.3817 H              1 <1>                0.0000
     32 H32         -0.6635  -1.9451   0.7353 H              1 <1>                0.0000
@<TRIPOS>BOND
    1    1    2 1     
    2    1   20 1     
    3    1   21 1     
    4    1   22 1     
    5    2    8 1     
    6    2    3 2     
    7    3    4 1     
    8    3   23 1     
    9    4    5 1     
   10    4    7 2     
   11    5    6 1     
   12    5   24 1     
   13    5   25 1     
   14    6   26 1     
   15    7    8 1     
   16    8    9 1     
   17    9   14 ar    
   18    9   10 ar    
   19   10   11 ar    
   20   10   27 1     
   21   11   12 ar    
   22   11   28 1     
   23   12   13 ar    
   24   12   29 1     
   25   13   14 ar    
   26   13   30 1     
   27   14   15 1     
   28   15   16 1     
   29   15   31 1     
   30   15   32 1     
   31   16   17 1     
   32   16   18 1     
   33   16   19 1     
@<TRIPOS>SUBSTRUCTURE
      1 ****           1
@<TRIPOS>SET
DONOR_HYDROGENS      STATIC     ATOMS    <user>   **** ""
4 26 17 18 19
ATOM$RED        STATIC     ATOMS    COLORGROUP SYSTEM
4 26 17 18 19
