#       Name:                UB1
#       Creating user name   gbret
#       Creation time:       Fri Sep  9 17:33:21 2016


#       File generated by GOLD software.
#

@<TRIPOS>MOLECULE
UB1
    38    39     1
SMALL
NO_CHARGES


@<TRIPOS>ATOM
      1 C1          -0.4919   3.8661   1.0212 C.3            1 <1>                0.0000
      2 C2          -0.3826   2.3632   1.0021 C.2            1 <1>                0.0000
      3 C3          -1.4932   1.5971   0.9479 C.2            1 <1>                0.0000
      4 N4          -1.3759   0.2339   0.9314 N.am           1 <1>                0.0000
      5 C5          -2.5808  -0.5973   0.8726 C.3            1 <1>                0.0000
      6 C6          -3.0134  -0.7660  -0.5853 C.3            1 <1>                0.0000
      7 N7          -1.9378  -1.4197  -1.3427 N.4            1 <1>                0.0000
      8 H8          -1.0831  -0.8945  -1.2344 H              1 <1>                0.0000
      9 H9          -1.8030  -2.3571  -0.9946 H              1 <1>                0.0000
     10 H10         -2.1885  -1.4564  -2.3194 H              1 <1>                0.0000
     11 C11         -4.2573  -1.6146  -0.6452 C.2            1 <1>                0.0000
     12 O12         -5.3177  -1.1716  -0.2377 O.co2          1 <1>                0.0000
     13 O13         -4.2034  -2.7441  -1.1011 O.co2          1 <1>                0.0000
     14 C14         -0.1645  -0.3502   0.9682 C.2            1 <1>                0.0000
     15 O15         -0.0833  -1.5633   0.9523 O.2            1 <1>                0.0000
     16 N16          0.9588   0.3893   1.0221 N.am           1 <1>                0.0000
     17 C17          2.2659  -0.2711   1.0604 C.3            1 <1>                0.0000
     18 C18          2.6983  -0.6111  -0.3427 C.2            1 <1>                0.0000
     19 C19          2.0281  -0.1867  -1.4626 C.2            1 <1>                0.0000
     20 Br20         0.4712   0.8826  -1.3692 Br             1 <1>                0.0000
     21 C21          2.5586  -0.5856  -2.6286 C.2            1 <1>                0.0000
     22 Br22         1.8542  -0.1544  -4.3297 Br             1 <1>                0.0000
     23 S23          3.9541  -1.5330  -2.3719 S.3            1 <1>                0.0000
     24 C24          3.8031  -1.3699  -0.6277 C.2            1 <1>                0.0000
     25 C25          4.6796  -1.9369   0.3295 C.2            1 <1>                0.0000
     26 O26          5.6887  -2.5269  -0.0376 O.co2          1 <1>                0.0000
     27 O27          4.4288  -1.8374   1.5246 O.co2          1 <1>                0.0000
     28 C28          0.8861   1.7357   1.0350 C.2            1 <1>                0.0000
     29 O29          1.9019   2.4056   1.0833 O.2            1 <1>                0.0000
     30 H30          0.5062   4.3024   1.0610 H              1 <1>                0.0000
     31 H31         -1.0007   4.2048   0.1187 H              1 <1>                0.0000
     32 H32         -1.0601   4.1780   1.8975 H              1 <1>                0.0000
     33 H33         -2.4694   2.0581   0.9181 H              1 <1>                0.0000
     34 H34         -2.3688  -1.5756   1.3042 H              1 <1>                0.0000
     35 H35         -3.3812  -0.1175   1.4359 H              1 <1>                0.0000
     36 H36         -3.2200   0.2126  -1.0185 H              1 <1>                0.0000
     37 H37          2.9976   0.3974   1.5141 H              1 <1>                0.0000
     38 H38          2.1941  -1.1850   1.6500 H              1 <1>                0.0000
@<TRIPOS>BOND
    1    1    2 1     
    2    1   30 1     
    3    1   31 1     
    4    1   32 1     
    5    2   28 1     
    6    2    3 2     
    7    3    4 1     
    8    3   33 1     
    9    4    5 1     
   10    4   14 am    
   11    5    6 1     
   12    5   34 1     
   13    5   35 1     
   14    6    7 1     
   15    6   11 1     
   16    6   36 1     
   17    7    8 1     
   18    7    9 1     
   19    7   10 1     
   20   11   12 ar    
   21   11   13 ar    
   22   14   15 2     
   23   14   16 am    
   24   16   17 1     
   25   16   28 am    
   26   17   18 1     
   27   17   37 1     
   28   17   38 1     
   29   18   24 2     
   30   18   19 1     
   31   19   20 1     
   32   19   21 2     
   33   21   22 1     
   34   21   23 1     
   35   23   24 1     
   36   24   25 1     
   37   25   26 ar    
   38   25   27 ar    
   39   28   29 2     
@<TRIPOS>SUBSTRUCTURE
      1 ****           1
@<TRIPOS>SET
DONOR_HYDROGENS      STATIC     ATOMS    <user>   **** ""
3 8 9 10
ATOM$RED        STATIC     ATOMS    COLORGROUP SYSTEM
3 8 9 10
