#       Name:                UDB
#       Creating user name   gbret
#       Creation time:       Fri Sep  9 17:36:34 2016


#       File generated by GOLD software.
#

@<TRIPOS>MOLECULE
UDB
    61    62     1
SMALL
NO_CHARGES


@<TRIPOS>ATOM
      1 C1          -1.2996   2.3507   1.4832 C.3            1 <1>                0.0000
      2 C2          -1.4699   0.8440   1.6876 C.3            1 <1>                0.0000
      3 C3          -1.3741   0.5177   3.1793 C.3            1 <1>                0.0000
      4 C4          -2.8374   0.4088   1.1572 C.3            1 <1>                0.0000
      5 C5          -0.3686   0.0989   0.9308 C.3            1 <1>                0.0000
      6 N6           0.9266   0.3740   1.5576 N.am           1 <1>                0.0000
      7 C7           1.6190   1.4790   1.2170 C.2            1 <1>                0.0000
      8 O8           1.1686   2.2476   0.3896 O.2            1 <1>                0.0000
      9 N9           2.8106   1.7320   1.7937 N.am           1 <1>                0.0000
     10 C10          3.5640   2.8387   1.3866 C.ar           1 <1>                0.0000
     11 C11          4.9492   2.7573   1.3395 C.ar           1 <1>                0.0000
     12 C12          5.6923   3.8525   0.9362 C.ar           1 <1>                0.0000
     13 F13          7.0402   3.7737   0.8902 F              1 <1>                0.0000
     14 C14          5.0554   5.0290   0.5793 C.ar           1 <1>                0.0000
     15 C15          3.6740   5.1124   0.6261 C.ar           1 <1>                0.0000
     16 F16          3.0548   6.2614   0.2773 F              1 <1>                0.0000
     17 C17          2.9270   4.0178   1.0237 C.ar           1 <1>                0.0000
     18 C18         -0.6432  -1.3822   0.9739 C.2            1 <1>                0.0000
     19 O19         -0.3151  -2.0318   1.9442 O.2            1 <1>                0.0000
     20 N20         -1.2533  -1.9850  -0.0657 N.am           1 <1>                0.0000
     21 C21         -1.5786  -1.2167  -1.2699 C.3            1 <1>                0.0000
     22 C22         -0.3574  -1.1698  -2.1904 C.3            1 <1>                0.0000
     23 C23         -0.0909  -2.5646  -2.8090 C.3            1 <1>                0.0000
     24 C24          0.7058  -2.2226  -4.0925 C.3            1 <1>                0.0000
     25 C25          0.0430  -0.9320  -4.6166 C.3            1 <1>                0.0000
     26 C26         -0.6330  -0.2626  -3.4072 C.3            1 <1>                0.0000
     27 C27         -1.5912  -3.4086   0.0084 C.3            1 <1>                0.0000
     28 C28         -2.9739  -3.5673   0.5863 C.2            1 <1>                0.0000
     29 O29         -3.6141  -2.5877   0.9049 O.2            1 <1>                0.0000
     30 N30         -3.4991  -4.7978   0.7492 N.am           1 <1>                0.0000
     31 O31         -4.7983  -4.9469   1.2922 O.3            1 <1>                0.0000
     32 H32         -0.3254   2.6608   1.8611 H              1 <1>                0.0000
     33 H33         -1.3679   2.5832   0.4205 H              1 <1>                0.0000
     34 H34         -2.0842   2.8815   2.0224 H              1 <1>                0.0000
     35 H35         -2.1587   1.0485   3.7185 H              1 <1>                0.0000
     36 H36         -1.4954  -0.5557   3.3250 H              1 <1>                0.0000
     37 H37         -0.3999   0.8278   3.5572 H              1 <1>                0.0000
     38 H38         -2.9336   0.7062   0.1129 H              1 <1>                0.0000
     39 H39         -2.9300  -0.6744   1.2365 H              1 <1>                0.0000
     40 H40         -3.6231   0.8845   1.7442 H              1 <1>                0.0000
     41 H41         -0.3491   0.4348  -0.1060 H              1 <1>                0.0000
     42 H42          1.2859  -0.2392   2.2177 H              1 <1>                0.0000
     43 H43          3.1460   1.1470   2.4910 H              1 <1>                0.0000
     44 H44          5.4464   1.8398   1.6177 H              1 <1>                0.0000
     45 H45          5.6368   5.8829   0.2644 H              1 <1>                0.0000
     46 H46          1.8496   4.0832   1.0600 H              1 <1>                0.0000
     47 H47         -2.4087  -1.6931  -1.7916 H              1 <1>                0.0000
     48 H48         -1.8607  -0.2022  -0.9884 H              1 <1>                0.0000
     49 H49          0.5180  -0.8192  -1.6436 H              1 <1>                0.0000
     50 H50          0.5070  -3.1782  -2.1352 H              1 <1>                0.0000
     51 H51         -1.0282  -3.0625  -3.0573 H              1 <1>                0.0000
     52 H52          1.7542  -2.0434  -3.8543 H              1 <1>                0.0000
     53 H53          0.6116  -3.0244  -4.8249 H              1 <1>                0.0000
     54 H54          0.7987  -0.2682  -5.0367 H              1 <1>                0.0000
     55 H55         -0.7026  -1.1759  -5.3734 H              1 <1>                0.0000
     56 H56         -1.7066  -0.1817  -3.5771 H              1 <1>                0.0000
     57 H57         -0.2054   0.7261  -3.2404 H              1 <1>                0.0000
     58 H58         -1.5635  -3.8412  -0.9917 H              1 <1>                0.0000
     59 H59         -0.8701  -3.9205   0.6457 H              1 <1>                0.0000
     60 H60         -2.9871  -5.5813   0.4944 H              1 <1>                0.0000
     61 H61         -5.0887  -5.8659   1.3707 H              1 <1>                0.0000
@<TRIPOS>BOND
    1    1    2 1     
    2    1   32 1     
    3    1   33 1     
    4    1   34 1     
    5    2    3 1     
    6    2    4 1     
    7    2    5 1     
    8    3   35 1     
    9    3   36 1     
   10    3   37 1     
   11    4   38 1     
   12    4   39 1     
   13    4   40 1     
   14    5    6 1     
   15    5   18 1     
   16    5   41 1     
   17    6    7 am    
   18    6   42 1     
   19    7    8 2     
   20    7    9 am    
   21    9   10 1     
   22    9   43 1     
   23   10   17 ar    
   24   10   11 ar    
   25   11   12 ar    
   26   11   44 1     
   27   12   13 1     
   28   12   14 ar    
   29   14   15 ar    
   30   14   45 1     
   31   15   16 1     
   32   15   17 ar    
   33   17   46 1     
   34   18   19 2     
   35   18   20 am    
   36   20   21 1     
   37   20   27 1     
   38   21   22 1     
   39   21   47 1     
   40   21   48 1     
   41   22   26 1     
   42   22   23 1     
   43   22   49 1     
   44   23   24 1     
   45   23   50 1     
   46   23   51 1     
   47   24   25 1     
   48   24   52 1     
   49   24   53 1     
   50   25   26 1     
   51   25   54 1     
   52   25   55 1     
   53   26   56 1     
   54   26   57 1     
   55   27   28 1     
   56   27   58 1     
   57   27   59 1     
   58   28   29 2     
   59   28   30 am    
   60   30   31 1     
   61   30   60 1     
   62   31   61 1     
@<TRIPOS>SUBSTRUCTURE
      1 ****           1
@<TRIPOS>SET
DONOR_HYDROGENS      STATIC     ATOMS    <user>   **** ""
4 42 43 60 61
ATOM$RED        STATIC     ATOMS    COLORGROUP SYSTEM
4 42 43 60 61
