#       Name:                UEK
#       Creating user name   gbret
#       Creation time:       Fri Sep  9 17:37:45 2016


#       File generated by GOLD software.
#

@<TRIPOS>MOLECULE
UEK
    69    72     1
SMALL
NO_CHARGES


@<TRIPOS>ATOM
      1 N1           4.8724  -0.0139   1.5436 N.4            1 <1>                0.0000
      2 H2           4.8831  -1.0228   1.5339 H              1 <1>                0.0000
      3 H3           5.8201   0.3325   1.5438 H              1 <1>                0.0000
      4 H4           4.3905   0.3252   0.7245 H              1 <1>                0.0000
      5 C5           4.1787   0.4568   2.7499 C.3            1 <1>                0.0000
      6 C6           2.7417  -0.0684   2.7495 C.3            1 <1>                0.0000
      7 C7           1.9863   0.5357   1.5939 C.2            1 <1>                0.0000
      8 O8           2.5425   1.3100   0.8443 O.2            1 <1>                0.0000
      9 N9           0.6926   0.2154   1.3933 N.am           1 <1>                0.0000
     10 C10         -0.1364  -0.7012   2.2097 C.3            1 <1>                0.0000
     11 C11         -0.9796  -1.4556   1.1511 C.3            1 <1>                0.0000
     12 C12         -2.2751  -1.9863   1.7682 C.3            1 <1>                0.0000
     13 O13         -1.9654  -2.9960   2.7309 O.3            1 <1>                0.0000
     14 C14         -1.2811  -0.3571   0.1055 C.3            1 <1>                0.0000
     15 C15         -0.1890   0.7107   0.3197 C.3            1 <1>                0.0000
     16 C16         -1.1981  -0.9241  -1.2883 C.ar           1 <1>                0.0000
     17 C17         -0.0163  -1.4857  -1.7360 C.ar           1 <1>                0.0000
     18 C18          0.0643  -2.0075  -3.0138 C.ar           1 <1>                0.0000
     19 C19         -1.0373  -1.9692  -3.8480 C.ar           1 <1>                0.0000
     20 Cl20        -0.9360  -2.6249  -5.4522 Cl             1 <1>                0.0000
     21 C21         -2.2259  -1.4055  -3.4006 C.ar           1 <1>                0.0000
     22 N22         -3.3437  -1.3652  -4.2422 N.am           1 <1>                0.0000
     23 C23         -4.2983  -0.4334  -4.0506 C.2            1 <1>                0.0000
     24 O24         -4.1424   0.4316  -3.2147 O.2            1 <1>                0.0000
     25 C25         -5.5595  -0.4661  -4.8748 C.3            1 <1>                0.0000
     26 C26         -6.4555   0.6751  -4.4676 C.ar           1 <1>                0.0000
     27 C27         -7.3809   0.4996  -3.4557 C.ar           1 <1>                0.0000
     28 C28         -8.2031   1.5455  -3.0814 C.ar           1 <1>                0.0000
     29 C29         -8.0994   2.7696  -3.7201 C.ar           1 <1>                0.0000
     30 F30         -8.9023   3.7928  -3.3547 F              1 <1>                0.0000
     31 C31         -7.1719   2.9443  -4.7332 C.ar           1 <1>                0.0000
     32 C32         -6.3475   1.8984  -5.1024 C.ar           1 <1>                0.0000
     33 C33         -2.3041  -0.8873  -2.1147 C.ar           1 <1>                0.0000
     34 C34          4.9093  -0.0574   3.9919 C.3            1 <1>                0.0000
     35 C35          6.2837   0.5575   4.0568 C.ar           1 <1>                0.0000
     36 C36          7.3517  -0.0718   3.4449 C.ar           1 <1>                0.0000
     37 C37          8.6125   0.4914   3.5045 C.ar           1 <1>                0.0000
     38 C38          8.8054   1.6854   4.1762 C.ar           1 <1>                0.0000
     39 Cl39        10.3886   2.3937   4.2509 Cl             1 <1>                0.0000
     40 C40          7.7360   2.3150   4.7879 C.ar           1 <1>                0.0000
     41 C41          6.4748   1.7534   4.7233 C.ar           1 <1>                0.0000
     42 H42          4.1671   1.5467   2.7604 H              1 <1>                0.0000
     43 H43          2.7516  -1.1538   2.6495 H              1 <1>                0.0000
     44 H44          2.2543   0.2058   3.6852 H              1 <1>                0.0000
     45 H45          0.4926  -1.3957   2.7665 H              1 <1>                0.0000
     46 H46         -0.7809  -0.1383   2.8849 H              1 <1>                0.0000
     47 H47         -0.4044  -2.2678   0.7067 H              1 <1>                0.0000
     48 H48         -2.8063  -1.1694   2.2566 H              1 <1>                0.0000
     49 H49         -2.9031  -2.4113   0.9852 H              1 <1>                0.0000
     50 H50         -2.7413  -3.3783   3.1634 H              1 <1>                0.0000
     51 H51         -2.2668   0.0733   0.2820 H              1 <1>                0.0000
     52 H52         -0.6462   1.6557   0.6133 H              1 <1>                0.0000
     53 H53          0.3861   0.8425  -0.5968 H              1 <1>                0.0000
     54 H54          0.8458  -1.5164  -1.0862 H              1 <1>                0.0000
     55 H55          0.9888  -2.4450  -3.3606 H              1 <1>                0.0000
     56 H56         -3.4312  -2.0080  -4.9633 H              1 <1>                0.0000
     57 H57         -5.3061  -0.3703  -5.9306 H              1 <1>                0.0000
     58 H58         -6.0770  -1.4111  -4.7097 H              1 <1>                0.0000
     59 H59         -7.4616  -0.4553  -2.9577 H              1 <1>                0.0000
     60 H60         -8.9264   1.4079  -2.2913 H              1 <1>                0.0000
     61 H61         -7.0904   3.8986  -5.2322 H              1 <1>                0.0000
     62 H62         -5.6237   2.0346  -5.8924 H              1 <1>                0.0000
     63 H63         -3.2265  -0.4485  -1.7639 H              1 <1>                0.0000
     64 H64          4.3463   0.2164   4.8841 H              1 <1>                0.0000
     65 H65          4.9989  -1.1424   3.9375 H              1 <1>                0.0000
     66 H66          7.2010  -1.0039   2.9206 H              1 <1>                0.0000
     67 H67          9.4470  -0.0007   3.0271 H              1 <1>                0.0000
     68 H68          7.8861   3.2469   5.3127 H              1 <1>                0.0000
     69 H69          5.6398   2.2449   5.2004 H              1 <1>                0.0000
@<TRIPOS>BOND
    1    1    2 1     
    2    1    3 1     
    3    1    4 1     
    4    1    5 1     
    5    5    6 1     
    6    5   34 1     
    7    5   42 1     
    8    6    7 1     
    9    6   43 1     
   10    6   44 1     
   11    7    8 2     
   12    7    9 am    
   13    9   15 1     
   14    9   10 1     
   15   10   11 1     
   16   10   45 1     
   17   10   46 1     
   18   11   12 1     
   19   11   14 1     
   20   11   47 1     
   21   12   13 1     
   22   12   48 1     
   23   12   49 1     
   24   13   50 1     
   25   14   15 1     
   26   14   16 1     
   27   14   51 1     
   28   15   52 1     
   29   15   53 1     
   30   16   33 ar    
   31   16   17 ar    
   32   17   18 ar    
   33   17   54 1     
   34   18   19 ar    
   35   18   55 1     
   36   19   20 1     
   37   19   21 ar    
   38   21   22 1     
   39   21   33 ar    
   40   22   23 am    
   41   22   56 1     
   42   23   24 2     
   43   23   25 1     
   44   25   26 1     
   45   25   57 1     
   46   25   58 1     
   47   26   32 ar    
   48   26   27 ar    
   49   27   28 ar    
   50   27   59 1     
   51   28   29 ar    
   52   28   60 1     
   53   29   30 1     
   54   29   31 ar    
   55   31   32 ar    
   56   31   61 1     
   57   32   62 1     
   58   33   63 1     
   59   34   35 1     
   60   34   64 1     
   61   34   65 1     
   62   35   41 ar    
   63   35   36 ar    
   64   36   37 ar    
   65   36   66 1     
   66   37   38 ar    
   67   37   67 1     
   68   38   39 1     
   69   38   40 ar    
   70   40   41 ar    
   71   40   68 1     
   72   41   69 1     
@<TRIPOS>SUBSTRUCTURE
      1 ****           1
@<TRIPOS>SET
DONOR_HYDROGENS      STATIC     ATOMS    <user>   **** ""
5 2 3 4 50 56
ATOM$RED        STATIC     ATOMS    COLORGROUP SYSTEM
5 2 3 4 50 56
