#       Name:                UET
#       Creating user name   gbret
#       Creation time:       Fri Sep  9 17:37:58 2016


#       File generated by GOLD software.
#

@<TRIPOS>MOLECULE
UET
    66    68     1
SMALL
NO_CHARGES


@<TRIPOS>ATOM
      1 N1           8.6560   5.9524   1.6042 N.pl3          1 <1>                0.0000
      2 C2           8.7643   4.6279   1.5224 C.2            1 <1>                0.0000
      3 N3           9.9455   4.0714   1.2617 N.pl3          1 <1>                0.0000
      4 H4          10.7271   4.6309   1.1313 H              1 <1>                0.0000
      5 H5          10.0245   3.1064   1.2022 H              1 <1>                0.0000
      6 C6           7.5720   3.7744   1.7210 C.ar           1 <1>                0.0000
      7 C7           6.5385   4.1984   2.5568 C.ar           1 <1>                0.0000
      8 C8           5.4291   3.3981   2.7376 C.ar           1 <1>                0.0000
      9 C9           5.3404   2.1777   2.0921 C.ar           1 <1>                0.0000
     10 C10          4.1258   1.3087   2.2940 C.3            1 <1>                0.0000
     11 N11          3.1155   1.6396   1.2861 N.am           1 <1>                0.0000
     12 C12          1.9376   0.9848   1.2722 C.2            1 <1>                0.0000
     13 O13          1.7141   0.1215   2.0942 O.2            1 <1>                0.0000
     14 C14          0.8984   1.3252   0.2354 C.3            1 <1>                0.0000
     15 N15         -0.2823   0.4804   0.4317 N.am           1 <1>                0.0000
     16 C16         -1.3466   0.6094  -0.3851 C.2            1 <1>                0.0000
     17 O17         -1.3269   1.4249  -1.2826 O.2            1 <1>                0.0000
     18 C18         -2.5611  -0.2595  -0.1831 C.3            1 <1>                0.0000
     19 C19         -3.1357  -0.0163   1.2139 C.3            1 <1>                0.0000
     20 C20         -4.2635  -0.9829   1.4685 C.ar           1 <1>                0.0000
     21 C21         -5.5458  -0.6732   1.0551 C.ar           1 <1>                0.0000
     22 C22         -6.5803  -1.5599   1.2887 C.ar           1 <1>                0.0000
     23 C23         -6.3325  -2.7563   1.9351 C.ar           1 <1>                0.0000
     24 C24         -5.0501  -3.0664   2.3477 C.ar           1 <1>                0.0000
     25 C25         -4.0148  -2.1817   2.1103 C.ar           1 <1>                0.0000
     26 N26         -3.5715   0.0714  -1.1911 N.pl3          1 <1>                0.0000
     27 S27         -3.6792  -0.8234  -2.5804 S.o2           1 <1>                0.0000
     28 O28         -4.7267  -0.2052  -3.3151 O.2            1 <1>                0.0000
     29 O29         -2.3502  -0.8523  -3.0825 O.2            1 <1>                0.0000
     30 C30         -4.1833  -2.4728  -2.0184 C.3            1 <1>                0.0000
     31 C31         -4.2020  -3.4191  -3.1912 C.ar           1 <1>                0.0000
     32 C32         -5.3543  -3.5694  -3.9398 C.ar           1 <1>                0.0000
     33 C33         -5.3715  -4.4374  -5.0155 C.ar           1 <1>                0.0000
     34 C34         -4.2361  -5.1547  -5.3429 C.ar           1 <1>                0.0000
     35 C35         -3.0835  -5.0038  -4.5949 C.ar           1 <1>                0.0000
     36 C36         -3.0651  -4.1326  -3.5218 C.ar           1 <1>                0.0000
     37 C37          6.3617   1.7518   1.2617 C.ar           1 <1>                0.0000
     38 C38          7.4741   2.5449   1.0688 C.ar           1 <1>                0.0000
     39 H39          9.4376   6.5119   1.4740 H              1 <1>                0.0000
     40 H40          7.7948   6.3580   1.7901 H              1 <1>                0.0000
     41 H41          6.6068   5.1507   3.0615 H              1 <1>                0.0000
     42 H42          4.6285   3.7250   3.3846 H              1 <1>                0.0000
     43 H43          4.4084   0.2606   2.1948 H              1 <1>                0.0000
     44 H44          3.7165   1.4820   3.2893 H              1 <1>                0.0000
     45 H45          3.2943   2.3301   0.6286 H              1 <1>                0.0000
     46 H46          0.6158   2.3732   0.3346 H              1 <1>                0.0000
     47 H47          1.3077   1.1519  -0.7599 H              1 <1>                0.0000
     48 H48         -0.2981  -0.1718   1.1495 H              1 <1>                0.0000
     49 H49         -2.2786  -1.3076  -0.2824 H              1 <1>                0.0000
     50 H50         -2.3543  -0.1653   1.9591 H              1 <1>                0.0000
     51 H51         -3.5107   1.0050   1.2798 H              1 <1>                0.0000
     52 H52         -5.7394   0.2615   0.5501 H              1 <1>                0.0000
     53 H53         -7.5822  -1.3176   0.9664 H              1 <1>                0.0000
     54 H54         -7.1409  -3.4487   2.1182 H              1 <1>                0.0000
     55 H55         -4.8565  -4.0010   2.8530 H              1 <1>                0.0000
     56 H56         -3.0129  -2.4239   2.4326 H              1 <1>                0.0000
     57 H57         -4.1773   0.8147  -1.0447 H              1 <1>                0.0000
     58 H58         -3.4765  -2.8340  -1.2714 H              1 <1>                0.0000
     59 H59         -5.1796  -2.4184  -1.5796 H              1 <1>                0.0000
     60 H60         -6.2414  -3.0089  -3.6840 H              1 <1>                0.0000
     61 H61         -6.2720  -4.5553  -5.5999 H              1 <1>                0.0000
     62 H62         -4.2497  -5.8334  -6.1829 H              1 <1>                0.0000
     63 H63         -2.1965  -5.5645  -4.8505 H              1 <1>                0.0000
     64 H64         -2.1645  -4.0146  -2.9373 H              1 <1>                0.0000
     65 H65          6.2863   0.7982   0.7603 H              1 <1>                0.0000
     66 H66          8.2705   2.2116   0.4201 H              1 <1>                0.0000
@<TRIPOS>BOND
    1    1    2 2     
    2    1   39 1     
    3    1   40 1     
    4    2    3 1     
    5    2    6 1     
    6    3    4 1     
    7    3    5 1     
    8    6   38 ar    
    9    6    7 ar    
   10    7    8 ar    
   11    7   41 1     
   12    8    9 ar    
   13    8   42 1     
   14    9   10 1     
   15    9   37 ar    
   16   10   11 1     
   17   10   43 1     
   18   10   44 1     
   19   11   12 am    
   20   11   45 1     
   21   12   13 2     
   22   12   14 1     
   23   14   15 1     
   24   14   46 1     
   25   14   47 1     
   26   15   16 am    
   27   15   48 1     
   28   16   17 2     
   29   16   18 1     
   30   18   19 1     
   31   18   26 1     
   32   18   49 1     
   33   19   20 1     
   34   19   50 1     
   35   19   51 1     
   36   20   25 ar    
   37   20   21 ar    
   38   21   22 ar    
   39   21   52 1     
   40   22   23 ar    
   41   22   53 1     
   42   23   24 ar    
   43   23   54 1     
   44   24   25 ar    
   45   24   55 1     
   46   25   56 1     
   47   26   27 1     
   48   26   57 1     
   49   27   28 2     
   50   27   29 2     
   51   27   30 1     
   52   30   31 1     
   53   30   58 1     
   54   30   59 1     
   55   31   36 ar    
   56   31   32 ar    
   57   32   33 ar    
   58   32   60 1     
   59   33   34 ar    
   60   33   61 1     
   61   34   35 ar    
   62   34   62 1     
   63   35   36 ar    
   64   35   63 1     
   65   36   64 1     
   66   37   38 ar    
   67   37   65 1     
   68   38   66 1     
@<TRIPOS>SUBSTRUCTURE
      1 ****           1
@<TRIPOS>SET
DONOR_HYDROGENS      STATIC     ATOMS    <user>   **** ""
7 39 40 4 5 45 48 57
ATOM$RED        STATIC     ATOMS    COLORGROUP SYSTEM
7 39 40 4 5 45 48 57
