#       Name:                UMF
#       Creating user name   gbret
#       Creation time:       Fri Sep  9 17:41:39 2016


#       File generated by GOLD software.
#

@<TRIPOS>MOLECULE
UMF
    31    32     1
SMALL
NO_CHARGES


@<TRIPOS>ATOM
      1 O1           2.6198   2.4224   0.1825 O.3            1 <1>                0.0000
      2 C2           2.5760   0.9973   0.0872 C.3            1 <1>                0.0000
      3 C3           1.1187   0.5345   0.0311 C.3            1 <1>                0.0000
      4 O4           0.5184   0.9148  -1.2262 O.3            1 <1>                0.0000
      5 C5          -0.6199   0.0401  -1.3843 C.3            1 <1>                0.0000
      6 C6          -0.1269  -1.3410  -0.8987 C.3            1 <1>                0.0000
      7 F7           0.3230  -2.1084  -1.9784 F              1 <1>                0.0000
      8 C8           1.0432  -1.0083   0.0539 C.3            1 <1>                0.0000
      9 O9           2.2612  -1.5765  -0.4316 O.3            1 <1>                0.0000
     10 P10          3.1421  -2.6210   0.4199 P.3            1 <1>                0.0000
     11 O11          2.3278  -3.9432   0.6279 O.co2          1 <1>                0.0000
     12 O12          4.4665  -2.9398  -0.3539 O.co2          1 <1>                0.0000
     13 O13          3.4892  -1.9966   1.8142 O.co2          1 <1>                0.0000
     14 N14         -1.7372   0.5026  -0.5572 N.am           1 <1>                0.0000
     15 C15         -1.5903   1.6222   0.2156 C.2            1 <1>                0.0000
     16 C16         -2.6203   2.0486   0.9775 C.2            1 <1>                0.0000
     17 C17         -3.8363   1.3238   0.9599 C.2            1 <1>                0.0000
     18 O18         -4.7793   1.6892   1.6383 O.2            1 <1>                0.0000
     19 N19         -3.9408   0.2255   0.1848 N.am           1 <1>                0.0000
     20 H20         -4.7708  -0.2763   0.1674 H              1 <1>                0.0000
     21 C21         -2.8998  -0.1744  -0.5689 C.2            1 <1>                0.0000
     22 O22         -3.0087  -1.1665  -1.2633 O.2            1 <1>                0.0000
     23 H23          3.5148   2.7866   0.2222 H              1 <1>                0.0000
     24 H24          3.0938   0.6775  -0.8171 H              1 <1>                0.0000
     25 H25          3.0629   0.5597   0.9586 H              1 <1>                0.0000
     26 H26          0.5557   0.9543   0.8647 H              1 <1>                0.0000
     27 H27         -0.9173  -0.0100  -2.4317 H              1 <1>                0.0000
     28 H28         -0.9204  -1.8636  -0.3644 H              1 <1>                0.0000
     29 H29          0.8290  -1.3654   1.0613 H              1 <1>                0.0000
     30 H30         -0.6549   2.1620   0.2164 H              1 <1>                0.0000
     31 H31         -2.5177   2.9305   1.5924 H              1 <1>                0.0000
@<TRIPOS>BOND
    1    1    2 1     
    2    1   23 1     
    3    2    3 1     
    4    2   24 1     
    5    2   25 1     
    6    3    8 1     
    7    3    4 1     
    8    3   26 1     
    9    4    5 1     
   10    5    6 1     
   11    5   14 1     
   12    5   27 1     
   13    6    7 1     
   14    6    8 1     
   15    6   28 1     
   16    8    9 1     
   17    8   29 1     
   18    9   10 1     
   19   10   11 ar    
   20   10   12 ar    
   21   10   13 ar    
   22   14   21 1     
   23   14   15 1     
   24   15   16 2     
   25   15   30 1     
   26   16   17 1     
   27   16   31 1     
   28   17   18 2     
   29   17   19 1     
   30   19   20 1     
   31   19   21 1     
   32   21   22 2     
@<TRIPOS>SUBSTRUCTURE
      1 ****           1
@<TRIPOS>SET
DONOR_HYDROGENS      STATIC     ATOMS    <user>   **** ""
2 23 20
ATOM$RED        STATIC     ATOMS    COLORGROUP SYSTEM
2 23 20
