#       Name:                UPC
#       Creating user name   gbret
#       Creation time:       Fri Sep  9 17:44:55 2016


#       File generated by GOLD software.
#

@<TRIPOS>MOLECULE
UPC
    41    42     1
SMALL
NO_CHARGES


@<TRIPOS>ATOM
      1 O1           3.1496   2.3465  -0.3911 O.3            1 <1>                0.0000
      2 C2           3.1690   0.9176  -0.3990 C.3            1 <1>                0.0000
      3 C3           3.7217   0.3580   0.9402 C.3            1 <1>                0.0000
      4 C4           2.4689   0.3703   1.8423 C.3            1 <1>                0.0000
      5 O5           1.3198   0.3830   0.9872 O.3            1 <1>                0.0000
      6 C6           1.7314   0.3396  -0.3884 C.3            1 <1>                0.0000
      7 C7           0.8054   1.2032  -1.2473 C.3            1 <1>                0.0000
      8 O8          -0.5020   0.6267  -1.2658 O.3            1 <1>                0.0000
      9 P9          -1.7343   1.2739  -2.0750 P.3            1 <1>                0.0000
     10 O10         -2.0902   2.6459  -1.4602 O.co2          1 <1>                0.0000
     11 O11         -1.3364   1.4608  -3.5561 O.co2          1 <1>                0.0000
     12 C12         -3.1791   0.1673  -1.9689 C.3            1 <1>                0.0000
     13 P13         -4.5744   0.9001  -2.8851 P.3            1 <1>                0.0000
     14 O14         -4.9303   2.2721  -2.2703 O.co2          1 <1>                0.0000
     15 O15         -4.1765   1.0870  -4.3662 O.co2          1 <1>                0.0000
     16 O16         -5.8504  -0.0772  -2.7914 O.3            1 <1>                0.0000
     17 P17         -7.3524  -0.0137  -3.3675 P.3            1 <1>                0.0000
     18 O18         -7.3535  -0.4502  -4.8721 O.co2          1 <1>                0.0000
     19 O19         -8.2693  -0.9800  -2.5427 O.co2          1 <1>                0.0000
     20 O20         -7.8961   1.4507  -3.2482 O.co2          1 <1>                0.0000
     21 N21          2.4498  -0.8296   2.6826 N.am           1 <1>                0.0000
     22 C22          2.3242  -2.0621   2.1015 C.2            1 <1>                0.0000
     23 C23          2.3071  -3.1679   2.8760 C.2            1 <1>                0.0000
     24 C24          2.4200  -3.0272   4.2802 C.2            1 <1>                0.0000
     25 O25          2.4074  -4.0100   4.9993 O.2            1 <1>                0.0000
     26 N26          2.5420  -1.7950   4.8140 N.am           1 <1>                0.0000
     27 H27          2.6199  -1.6905   5.7752 H              1 <1>                0.0000
     28 C28          2.5614  -0.7098   4.0180 C.2            1 <1>                0.0000
     29 O29          2.6724   0.3950   4.5134 O.2            1 <1>                0.0000
     30 H30          4.0275   2.7518  -0.3973 H              1 <1>                0.0000
     31 H31          3.7381   0.5396  -1.2482 H              1 <1>                0.0000
     32 H32          4.0967  -0.6573   0.8110 H              1 <1>                0.0000
     33 H33          4.4962   1.0105   1.3431 H              1 <1>                0.0000
     34 H34          2.4733   1.2620   2.4690 H              1 <1>                0.0000
     35 H35          1.7344  -0.6886  -0.7501 H              1 <1>                0.0000
     36 H36          0.7536   2.2080  -0.8282 H              1 <1>                0.0000
     37 H37          1.1949   1.2532  -2.2641 H              1 <1>                0.0000
     38 H38         -2.9280  -0.8007  -2.4026 H              1 <1>                0.0000
     39 H39         -3.4598   0.0354  -0.9239 H              1 <1>                0.0000
     40 H40          2.2389  -2.1498   1.0284 H              1 <1>                0.0000
     41 H41          2.2082  -4.1467   2.4303 H              1 <1>                0.0000
@<TRIPOS>BOND
    1    1    2 1     
    2    1   30 1     
    3    2    6 1     
    4    2    3 1     
    5    2   31 1     
    6    3    4 1     
    7    3   32 1     
    8    3   33 1     
    9    4    5 1     
   10    4   21 1     
   11    4   34 1     
   12    5    6 1     
   13    6    7 1     
   14    6   35 1     
   15    7    8 1     
   16    7   36 1     
   17    7   37 1     
   18    8    9 1     
   19    9   10 ar    
   20    9   11 ar    
   21    9   12 1     
   22   12   13 1     
   23   12   38 1     
   24   12   39 1     
   25   13   14 ar    
   26   13   15 ar    
   27   13   16 1     
   28   16   17 1     
   29   17   18 ar    
   30   17   19 ar    
   31   17   20 ar    
   32   21   28 1     
   33   21   22 1     
   34   22   23 2     
   35   22   40 1     
   36   23   24 1     
   37   23   41 1     
   38   24   25 2     
   39   24   26 1     
   40   26   27 1     
   41   26   28 1     
   42   28   29 2     
@<TRIPOS>SUBSTRUCTURE
      1 ****           1
@<TRIPOS>SET
DONOR_HYDROGENS      STATIC     ATOMS    <user>   **** ""
2 30 27
ATOM$RED        STATIC     ATOMS    COLORGROUP SYSTEM
2 30 27
