#       Name:                UW4
#       Creating user name   gbret
#       Creation time:       Fri Sep  9 17:49:07 2016


#       File generated by GOLD software.
#

@<TRIPOS>MOLECULE
UW4
    53    56     1
SMALL
NO_CHARGES


@<TRIPOS>ATOM
      1 C1          -0.6915   4.2653   4.5884 C.3            1 <1>                0.0000
      2 C2          -0.6707   2.7354   4.5800 C.3            1 <1>                0.0000
      3 C3           0.0693   2.2286   5.8195 C.3            1 <1>                0.0000
      4 C4          -2.1061   2.2059   4.5909 C.3            1 <1>                0.0000
      5 N5           0.0150   2.2630   3.3747 N.pl3          1 <1>                0.0000
      6 N6          -0.5579   1.4588   2.3860 N.2            1 <1>                0.0000
      7 C7           0.3290   1.2217   1.4485 C.2            1 <1>                0.0000
      8 C8           1.5652   1.9101   1.8387 C.2            1 <1>                0.0000
      9 C9           2.8315   1.9317   1.1001 C.2            1 <1>                0.0000
     10 N10          3.7643   0.9875   1.3342 N.am           1 <1>                0.0000
     11 O11          3.0403   2.8023   0.2757 O.2            1 <1>                0.0000
     12 C12          1.2921   2.5428   3.0485 C.2            1 <1>                0.0000
     13 N13          2.1721   3.3101   3.7841 N.pl3          1 <1>                0.0000
     14 C14          0.1215   0.4107   0.2250 C.ar           1 <1>                0.0000
     15 C15          0.7606   0.7759  -0.9707 C.ar           1 <1>                0.0000
     16 C16          0.5863   0.0497  -2.1050 C.ar           1 <1>                0.0000
     17 C17         -0.2435  -1.0862  -2.0947 C.ar           1 <1>                0.0000
     18 N18         -0.4250  -1.8117  -3.2039 N.ar           1 <1>                0.0000
     19 C19         -1.1983  -2.8759  -3.2061 C.ar           1 <1>                0.0000
     20 O20         -1.3513  -3.5798  -4.3546 O.3            1 <1>                0.0000
     21 C21         -0.6474  -3.1062  -5.5045 C.3            1 <1>                0.0000
     22 C22          0.4731  -4.0497  -5.9727 C.3            1 <1>                0.0000
     23 C23         -0.5857  -4.7478  -6.8425 C.3            1 <1>                0.0000
     24 C24         -1.3571  -3.4175  -6.8327 C.3            1 <1>                0.0000
     25 C25         -1.8670  -3.2997  -2.0510 C.ar           1 <1>                0.0000
     26 C26         -1.7225  -2.6025  -0.8889 C.ar           1 <1>                0.0000
     27 C27         -0.8921  -1.4624  -0.8927 C.ar           1 <1>                0.0000
     28 C28         -0.6962  -0.7044   0.2700 C.ar           1 <1>                0.0000
     29 H29          0.3311   4.6426   4.5807 H              1 <1>                0.0000
     30 H30         -1.2187   4.6263   3.7054 H              1 <1>                0.0000
     31 H31         -1.2017   4.6168   5.4852 H              1 <1>                0.0000
     32 H32         -0.4409   2.5801   6.7163 H              1 <1>                0.0000
     33 H33          0.0840   1.1387   5.8136 H              1 <1>                0.0000
     34 H34          1.0919   2.6059   5.8118 H              1 <1>                0.0000
     35 H35         -2.6333   2.5669   3.7078 H              1 <1>                0.0000
     36 H36         -2.0913   1.1160   4.5849 H              1 <1>                0.0000
     37 H37         -2.6163   2.5574   5.4877 H              1 <1>                0.0000
     38 H38          4.6021   1.0017   0.8456 H              1 <1>                0.0000
     39 H39          3.5977   0.2937   1.9914 H              1 <1>                0.0000
     40 H40          1.8869   3.7056   4.6225 H              1 <1>                0.0000
     41 H41          3.0759   3.4538   3.4626 H              1 <1>                0.0000
     42 H42          1.3994   1.6466  -0.9887 H              1 <1>                0.0000
     43 H43          1.0852   0.3448  -3.0163 H              1 <1>                0.0000
     44 H44         -0.3337  -2.0666  -5.4102 H              1 <1>                0.0000
     45 H45          1.2518  -3.5504  -6.5494 H              1 <1>                0.0000
     46 H46          0.8720  -4.6815  -5.1792 H              1 <1>                0.0000
     47 H47         -0.2210  -5.0337  -7.8290 H              1 <1>                0.0000
     48 H48         -1.1058  -5.5578  -6.3312 H              1 <1>                0.0000
     49 H49         -2.4358  -3.5389  -6.7334 H              1 <1>                0.0000
     50 H50         -1.0788  -2.7454  -7.6444 H              1 <1>                0.0000
     51 H51         -2.4961  -4.1770  -2.0811 H              1 <1>                0.0000
     52 H52         -2.2307  -2.9148   0.0115 H              1 <1>                0.0000
     53 H53         -1.1826  -0.9862   1.1922 H              1 <1>                0.0000
@<TRIPOS>BOND
    1    1    2 1     
    2    1   29 1     
    3    1   30 1     
    4    1   31 1     
    5    2    3 1     
    6    2    4 1     
    7    2    5 1     
    8    3   32 1     
    9    3   33 1     
   10    3   34 1     
   11    4   35 1     
   12    4   36 1     
   13    4   37 1     
   14    5   12 1     
   15    5    6 1     
   16    6    7 2     
   17    7    8 1     
   18    7   14 1     
   19    8    9 1     
   20    8   12 2     
   21    9   10 am    
   22    9   11 2     
   23   10   38 1     
   24   10   39 1     
   25   12   13 1     
   26   13   40 1     
   27   13   41 1     
   28   14   28 ar    
   29   14   15 ar    
   30   15   16 ar    
   31   15   42 1     
   32   16   17 ar    
   33   16   43 1     
   34   17   27 ar    
   35   17   18 ar    
   36   18   19 ar    
   37   19   20 1     
   38   19   25 ar    
   39   20   21 1     
   40   21   24 1     
   41   21   22 1     
   42   21   44 1     
   43   22   23 1     
   44   22   45 1     
   45   22   46 1     
   46   23   24 1     
   47   23   47 1     
   48   23   48 1     
   49   24   49 1     
   50   24   50 1     
   51   25   26 ar    
   52   25   51 1     
   53   26   27 ar    
   54   26   52 1     
   55   27   28 ar    
   56   28   53 1     
@<TRIPOS>SUBSTRUCTURE
      1 ****           1
@<TRIPOS>SET
DONOR_HYDROGENS      STATIC     ATOMS    <user>   **** ""
4 38 39 40 41
ATOM$RED        STATIC     ATOMS    COLORGROUP SYSTEM
4 38 39 40 41
