#       Name:                VAM
#       Creating user name   gbret
#       Creation time:       Fri Sep  9 17:53:23 2016


#       File generated by GOLD software.
#

@<TRIPOS>MOLECULE
VAM
    48    49     1
SMALL
NO_CHARGES


@<TRIPOS>ATOM
      1 C1           0.4844   4.5278  -3.5106 C.3            1 <1>                0.0000
      2 O2           0.5038   3.0989  -3.5185 O.3            1 <1>                0.0000
      3 C3           1.1751   2.5206  -2.3974 C.3            1 <1>                0.0000
      4 O4           0.3977   2.7295  -1.2166 O.3            1 <1>                0.0000
      5 C5           0.9935   2.2099  -0.0262 C.3            1 <1>                0.0000
      6 C6           0.0912   2.5150   1.1711 C.3            1 <1>                0.0000
      7 O7           0.0233   3.9287   1.3684 O.3            1 <1>                0.0000
      8 C8           1.1657   0.6949  -0.1628 C.3            1 <1>                0.0000
      9 O9          -0.1159   0.0798  -0.3081 O.3            1 <1>                0.0000
     10 C10         -0.1859  -1.2483   0.2147 C.3            1 <1>                0.0000
     11 O11         -0.1174  -1.2030   1.6414 O.3            1 <1>                0.0000
     12 C12         -0.1534  -2.4867   2.2683 C.3            1 <1>                0.0000
     13 C13         -0.0457  -2.3170   3.7850 C.3            1 <1>                0.0000
     14 O14          1.2336  -1.7717   4.1137 O.3            1 <1>                0.0000
     15 C15         -1.4724  -3.1839   1.9250 C.3            1 <1>                0.0000
     16 S16         -2.8588  -2.2148   2.5802 S.3            1 <1>                0.0000
     17 C17         -1.6005  -3.2960   0.4027 C.3            1 <1>                0.0000
     18 O18         -2.8621  -3.8794   0.0708 O.3            1 <1>                0.0000
     19 C19         -1.5062  -1.8957  -0.2111 C.3            1 <1>                0.0000
     20 O20         -2.5992  -1.0982   0.2485 O.3            1 <1>                0.0000
     21 C21          2.0203   0.3953  -1.3982 C.3            1 <1>                0.0000
     22 O22          2.1252  -1.0188  -1.5755 O.3            1 <1>                0.0000
     23 C23          1.3546   1.0180  -2.6292 C.3            1 <1>                0.0000
     24 O24          0.0779   0.4115  -2.8399 O.3            1 <1>                0.0000
     25 H25          1.5070   4.9051  -3.5184 H              1 <1>                0.0000
     26 H26         -0.0428   4.8889  -4.3937 H              1 <1>                0.0000
     27 H27         -0.0258   4.8793  -2.6138 H              1 <1>                0.0000
     28 H28          2.1519   2.9891  -2.2773 H              1 <1>                0.0000
     29 H29          1.9679   2.6745   0.1252 H              1 <1>                0.0000
     30 H30         -0.9092   2.1263   0.9805 H              1 <1>                0.0000
     31 H31          0.5005   2.0427   2.0642 H              1 <1>                0.0000
     32 H32         -0.5331   4.1956   2.1129 H              1 <1>                0.0000
     33 H33          1.6592   0.3027   0.7264 H              1 <1>                0.0000
     34 H34          0.6478  -1.8352  -0.1709 H              1 <1>                0.0000
     35 H35          0.6808  -3.0898   1.9099 H              1 <1>                0.0000
     36 H36         -0.8283  -1.6421   4.1316 H              1 <1>                0.0000
     37 H37         -0.1622  -3.2870   4.2684 H              1 <1>                0.0000
     38 H38          1.3721  -1.6368   5.0612 H              1 <1>                0.0000
     39 H39         -1.4835  -4.1803   2.3667 H              1 <1>                0.0000
     40 H40         -3.9329  -2.9346   2.2099 H              1 <1>                0.0000
     41 H41         -0.7964  -3.9208   0.0141 H              1 <1>                0.0000
     42 H42         -3.0109  -3.9806  -0.8793 H              1 <1>                0.0000
     43 H43         -1.5409  -1.9713  -1.2979 H              1 <1>                0.0000
     44 H44         -2.6028  -0.1967  -0.1013 H              1 <1>                0.0000
     45 H45          3.0150   0.8209  -1.2655 H              1 <1>                0.0000
     46 H46          2.6540  -1.2811  -2.3414 H              1 <1>                0.0000
     47 H47          1.9841   0.8571  -3.5044 H              1 <1>                0.0000
     48 H48         -0.4010   0.7585  -3.6049 H              1 <1>                0.0000
@<TRIPOS>BOND
    1    1    2 1     
    2    1   25 1     
    3    1   26 1     
    4    1   27 1     
    5    2    3 1     
    6    3   23 1     
    7    3    4 1     
    8    3   28 1     
    9    4    5 1     
   10    5    6 1     
   11    5    8 1     
   12    5   29 1     
   13    6    7 1     
   14    6   30 1     
   15    6   31 1     
   16    7   32 1     
   17    8    9 1     
   18    8   21 1     
   19    8   33 1     
   20    9   10 1     
   21   10   19 1     
   22   10   11 1     
   23   10   34 1     
   24   11   12 1     
   25   12   13 1     
   26   12   15 1     
   27   12   35 1     
   28   13   14 1     
   29   13   36 1     
   30   13   37 1     
   31   14   38 1     
   32   15   16 1     
   33   15   17 1     
   34   15   39 1     
   35   16   40 1     
   36   17   18 1     
   37   17   19 1     
   38   17   41 1     
   39   18   42 1     
   40   19   20 1     
   41   19   43 1     
   42   20   44 1     
   43   21   22 1     
   44   21   23 1     
   45   21   45 1     
   46   22   46 1     
   47   23   24 1     
   48   23   47 1     
   49   24   48 1     
@<TRIPOS>SUBSTRUCTURE
      1 ****           1
@<TRIPOS>SET
DONOR_HYDROGENS      STATIC     ATOMS    <user>   **** ""
6 32 38 42 44 46 48
ATOM$RED        STATIC     ATOMS    COLORGROUP SYSTEM
6 32 38 42 44 46 48
