#       Name:                VG5
#       Creating user name   gbret
#       Creation time:       Fri Sep  9 17:56:27 2016


#       File generated by GOLD software.
#

@<TRIPOS>MOLECULE
VG5
    87    90     1
SMALL
NO_CHARGES


@<TRIPOS>ATOM
      1 C1          -1.7801   4.9180  -1.8317 C.3            1 <1>                0.0000
      2 C2          -1.7593   3.3881  -1.8221 C.3            1 <1>                0.0000
      3 N3          -3.1337   2.8811  -1.8116 N.pl3          1 <1>                0.0000
      4 C4          -3.3703   1.5042  -1.8015 C.ar           1 <1>                0.0000
      5 C5          -4.6737   1.0243  -1.7974 C.ar           1 <1>                0.0000
      6 C6          -4.9132  -0.3429  -1.7879 C.ar           1 <1>                0.0000
      7 C7          -3.8512  -1.2348  -1.7820 C.ar           1 <1>                0.0000
      8 C8          -2.5409  -0.7567  -1.7861 C.ar           1 <1>                0.0000
      9 C9          -2.3035   0.6180  -1.8015 C.ar           1 <1>                0.0000
     10 C10         -1.4061  -1.7047  -1.7799 C.2            1 <1>                0.0000
     11 O11         -1.6145  -2.9022  -1.7712 O.2            1 <1>                0.0000
     12 N12         -0.1406  -1.2410  -1.7839 N.am           1 <1>                0.0000
     13 C13          0.9837  -2.1802  -1.7777 C.3            1 <1>                0.0000
     14 C14          1.2938  -2.6140  -3.2118 C.3            1 <1>                0.0000
     15 C15          0.1274  -3.3920  -3.7646 C.ar           1 <1>                0.0000
     16 C16          0.0721  -4.7636  -3.6017 C.ar           1 <1>                0.0000
     17 C17         -0.9978  -5.4771  -4.1088 C.ar           1 <1>                0.0000
     18 C18         -2.0125  -4.8191  -4.7783 C.ar           1 <1>                0.0000
     19 C19         -1.9575  -3.4473  -4.9403 C.ar           1 <1>                0.0000
     20 C20         -0.8898  -2.7332  -4.4295 C.ar           1 <1>                0.0000
     21 C21          2.2136  -1.4995  -1.1736 C.3            1 <1>                0.0000
     22 O22          2.5552  -0.3528  -1.9548 O.3            1 <1>                0.0000
     23 C23          1.9036  -1.0658   0.2605 C.3            1 <1>                0.0000
     24 N24          3.0844  -0.4122   0.8405 N.4            1 <1>                0.0000
     25 H25          3.8587  -1.0591   0.8448 H              1 <1>                0.0000
     26 H26          3.3256   0.3975   0.2889 H              1 <1>                0.0000
     27 C27          2.7867   0.0043   2.2174 C.3            1 <1>                0.0000
     28 C28          2.5429  -1.2334   3.0832 C.3            1 <1>                0.0000
     29 C29          3.9530   0.7822   2.7702 C.2            1 <1>                0.0000
     30 O30          4.9355   0.9711   2.0846 O.2            1 <1>                0.0000
     31 N31          3.9043   1.2681   4.0264 N.am           1 <1>                0.0000
     32 C32          5.0382   2.0243   4.5638 C.3            1 <1>                0.0000
     33 C33          4.9153   3.4917   4.1483 C.3            1 <1>                0.0000
     34 C34          6.0995   4.2815   4.7095 C.3            1 <1>                0.0000
     35 C35          6.1011   4.1822   6.2363 C.3            1 <1>                0.0000
     36 C36          6.2239   2.7148   6.6518 C.3            1 <1>                0.0000
     37 C37          5.0398   1.9250   6.0906 C.3            1 <1>                0.0000
     38 N38         -6.2282  -0.8220  -1.7838 N.am           1 <1>                0.0000
     39 C39         -6.5934  -2.2396  -1.8882 C.3            1 <1>                0.0000
     40 C40         -8.0596  -2.3239  -1.4093 C.3            1 <1>                0.0000
     41 C41         -8.5696  -0.8939  -1.7021 C.3            1 <1>                0.0000
     42 C42         -7.3188  -0.0434  -1.6778 C.2            1 <1>                0.0000
     43 O43         -7.3026   1.1657  -1.5839 O.2            1 <1>                0.0000
     44 H44         -0.7575   5.2952  -1.8395 H              1 <1>                0.0000
     45 H45         -2.3035   5.2686  -2.7212 H              1 <1>                0.0000
     46 H46         -2.2941   5.2800  -0.9413 H              1 <1>                0.0000
     47 H47         -1.2452   3.0261  -2.7125 H              1 <1>                0.0000
     48 H48         -1.2359   3.0375  -0.9326 H              1 <1>                0.0000
     49 H49         -3.8795   3.5014  -1.8116 H              1 <1>                0.0000
     50 H50         -5.5027   1.7165  -1.8013 H              1 <1>                0.0000
     51 H51         -4.0384  -2.2984  -1.7739 H              1 <1>                0.0000
     52 H52         -1.2902   0.9917  -1.8047 H              1 <1>                0.0000
     53 H53          0.0258  -0.2854  -1.7908 H              1 <1>                0.0000
     54 H54          0.7232  -3.0550  -1.1818 H              1 <1>                0.0000
     55 H55          1.4674  -1.7323  -3.8286 H              1 <1>                0.0000
     56 H56          2.1846  -3.2422  -3.2168 H              1 <1>                0.0000
     57 H57          0.8648  -5.2777  -3.0786 H              1 <1>                0.0000
     58 H58         -1.0407  -6.5488  -3.9822 H              1 <1>                0.0000
     59 H59         -2.8480  -5.3767  -5.1750 H              1 <1>                0.0000
     60 H60         -2.7501  -2.9333  -5.4637 H              1 <1>                0.0000
     61 H61         -0.8469  -1.6616  -4.5562 H              1 <1>                0.0000
     62 H62          3.0501  -2.1984  -1.1690 H              1 <1>                0.0000
     63 H63          1.8555   0.3129  -2.0030 H              1 <1>                0.0000
     64 H64          1.0671  -0.3670   0.2559 H              1 <1>                0.0000
     65 H65          1.6430  -1.9405   0.8564 H              1 <1>                0.0000
     66 H66          1.8959   0.6324   2.2225 H              1 <1>                0.0000
     67 H67          3.4337  -1.8615   3.0782 H              1 <1>                0.0000
     68 H68          2.3221  -0.9244   4.1049 H              1 <1>                0.0000
     69 H69          1.6993  -1.7961   2.6834 H              1 <1>                0.0000
     70 H70          3.1186   1.1170   4.5747 H              1 <1>                0.0000
     71 H71          5.9681   1.6123   4.1719 H              1 <1>                0.0000
     72 H72          4.9142   3.5624   3.0606 H              1 <1>                0.0000
     73 H73          3.9854   3.9036   4.5401 H              1 <1>                0.0000
     74 H74          7.0294   3.8695   4.3176 H              1 <1>                0.0000
     75 H75          6.0120   5.3268   4.4135 H              1 <1>                0.0000
     76 H76          6.9446   4.7448   6.6361 H              1 <1>                0.0000
     77 H77          5.1711   4.5941   6.6281 H              1 <1>                0.0000
     78 H78          7.1538   2.3028   6.2599 H              1 <1>                0.0000
     79 H79          6.2250   2.6440   7.7395 H              1 <1>                0.0000
     80 H80          4.1098   2.3370   6.4824 H              1 <1>                0.0000
     81 H81          5.1273   0.8796   6.3866 H              1 <1>                0.0000
     82 H82         -6.5146  -2.5742  -2.9226 H              1 <1>                0.0000
     83 H83         -5.9515  -2.8428  -1.2461 H              1 <1>                0.0000
     84 H84         -8.6165  -3.0624  -1.9860 H              1 <1>                0.0000
     85 H85         -8.1096  -2.5453  -0.3431 H              1 <1>                0.0000
     86 H86         -9.0454  -0.8516  -2.6819 H              1 <1>                0.0000
     87 H87         -9.2630  -0.5698  -0.9260 H              1 <1>                0.0000
@<TRIPOS>BOND
    1    1    2 1     
    2    1   44 1     
    3    1   45 1     
    4    1   46 1     
    5    2    3 1     
    6    2   47 1     
    7    2   48 1     
    8    3    4 1     
    9    3   49 1     
   10    4    9 ar    
   11    4    5 ar    
   12    5    6 ar    
   13    5   50 1     
   14    6    7 ar    
   15    6   38 1     
   16    7    8 ar    
   17    7   51 1     
   18    8    9 ar    
   19    8   10 1     
   20    9   52 1     
   21   10   11 2     
   22   10   12 am    
   23   12   13 1     
   24   12   53 1     
   25   13   14 1     
   26   13   21 1     
   27   13   54 1     
   28   14   15 1     
   29   14   55 1     
   30   14   56 1     
   31   15   20 ar    
   32   15   16 ar    
   33   16   17 ar    
   34   16   57 1     
   35   17   18 ar    
   36   17   58 1     
   37   18   19 ar    
   38   18   59 1     
   39   19   20 ar    
   40   19   60 1     
   41   20   61 1     
   42   21   22 1     
   43   21   23 1     
   44   21   62 1     
   45   22   63 1     
   46   23   24 1     
   47   23   64 1     
   48   23   65 1     
   49   24   25 1     
   50   24   26 1     
   51   24   27 1     
   52   27   28 1     
   53   27   29 1     
   54   27   66 1     
   55   28   67 1     
   56   28   68 1     
   57   28   69 1     
   58   29   30 2     
   59   29   31 am    
   60   31   32 1     
   61   31   70 1     
   62   32   37 1     
   63   32   33 1     
   64   32   71 1     
   65   33   34 1     
   66   33   72 1     
   67   33   73 1     
   68   34   35 1     
   69   34   74 1     
   70   34   75 1     
   71   35   36 1     
   72   35   76 1     
   73   35   77 1     
   74   36   37 1     
   75   36   78 1     
   76   36   79 1     
   77   37   80 1     
   78   37   81 1     
   79   38   42 am    
   80   38   39 1     
   81   39   40 1     
   82   39   82 1     
   83   39   83 1     
   84   40   41 1     
   85   40   84 1     
   86   40   85 1     
   87   41   42 1     
   88   41   86 1     
   89   41   87 1     
   90   42   43 2     
@<TRIPOS>SUBSTRUCTURE
      1 ****           1
@<TRIPOS>SET
DONOR_HYDROGENS      STATIC     ATOMS    <user>   **** ""
6 49 53 63 25 26 70
ATOM$RED        STATIC     ATOMS    COLORGROUP SYSTEM
6 49 53 63 25 26 70
