#       Name:                VGD
#       Creating user name   gbret
#       Creation time:       Fri Sep  9 17:57:04 2016


#       File generated by GOLD software.
#

@<TRIPOS>MOLECULE
VGD
    17    18     1
SMALL
NO_CHARGES


@<TRIPOS>ATOM
      1 N1          -0.1571   3.4137   0.0204 N.pl3          1 <1>                0.0000
      2 C2          -0.1384   2.0346   0.0128 C.2            1 <1>                0.0000
      3 N3          -1.2000   1.2679   0.0132 N.2            1 <1>                0.0000
      4 C4          -0.8202  -0.0374   0.0045 C.ar           1 <1>                0.0000
      5 C5          -1.5270  -1.2424   0.0009 C.ar           1 <1>                0.0000
      6 C6          -0.8426  -2.4370  -0.0085 C.ar           1 <1>                0.0000
      7 C7           0.5453  -2.4534  -0.0140 C.ar           1 <1>                0.0000
      8 Cl8          1.3902  -3.9699  -0.0253 Cl             1 <1>                0.0000
      9 C9           1.2580  -1.2710  -0.0111 C.ar           1 <1>                0.0000
     10 C10          0.5840  -0.0591  -0.0016 C.ar           1 <1>                0.0000
     11 N11          0.9898   1.2654  -0.0021 N.pl3          1 <1>                0.0000
     12 H12          1.9050   1.5867  -0.0108 H              1 <1>                0.0000
     13 H13          0.6762   3.9101   0.0151 H              1 <1>                0.0000
     14 H14         -1.0037   3.8872   0.0270 H              1 <1>                0.0000
     15 H15         -2.6070  -1.2369   0.0059 H              1 <1>                0.0000
     16 H16         -1.3897  -3.3682  -0.0112 H              1 <1>                0.0000
     17 H17          2.3378  -1.2898  -0.0154 H              1 <1>                0.0000
@<TRIPOS>BOND
    1    1    2 1     
    2    1   13 1     
    3    1   14 1     
    4    2   11 1     
    5    2    3 2     
    6    3    4 1     
    7    4   10 ar    
    8    4    5 ar    
    9    5    6 ar    
   10    5   15 1     
   11    6    7 ar    
   12    6   16 1     
   13    7    8 1     
   14    7    9 ar    
   15    9   10 ar    
   16    9   17 1     
   17   10   11 1     
   18   11   12 1     
@<TRIPOS>SUBSTRUCTURE
      1 ****           1
@<TRIPOS>SET
DONOR_HYDROGENS      STATIC     ATOMS    <user>   **** ""
3 13 14 12
ATOM$RED        STATIC     ATOMS    COLORGROUP SYSTEM
3 13 14 12
