#       Name:                VHH
#       Creating user name   gbret
#       Creation time:       Fri Sep  9 17:58:18 2016


#       File generated by GOLD software.
#

@<TRIPOS>MOLECULE
VHH
    37    38     1
SMALL
NO_CHARGES


@<TRIPOS>ATOM
      1 C1          -0.1762   4.4852   1.5976 C.3            1 <1>                0.0000
      2 N2          -0.1287   3.0211   1.6138 N.am           1 <1>                0.0000
      3 C3          -1.2972   2.1296   1.6818 C.3            1 <1>                0.0000
      4 C4          -2.2045   2.3884   0.4629 C.3            1 <1>                0.0000
      5 S5          -1.5529   1.2052  -0.7853 S.3            1 <1>                0.0000
      6 C6          -1.1342  -0.0987   0.4423 C.3            1 <1>                0.0000
      7 C7           0.0117  -0.9753  -0.0671 C.3            1 <1>                0.0000
      8 C8          -0.4697  -1.8001  -1.2624 C.3            1 <1>                0.0000
      9 C9           0.6761  -2.6767  -1.7718 C.3            1 <1>                0.0000
     10 C10          0.1947  -3.5015  -2.9671 C.3            1 <1>                0.0000
     11 C11          1.3234  -4.3650  -3.4689 C.2            1 <1>                0.0000
     12 O12          2.4119  -4.3244  -2.9211 O.co2          1 <1>                0.0000
     13 O13          1.1480  -5.1041  -4.4225 O.co2          1 <1>                0.0000
     14 C14         -0.6909   0.7211   1.6700 C.3            1 <1>                0.0000
     15 N15          0.7593   0.9581   1.5962 N.am           1 <1>                0.0000
     16 C16          1.7901  -0.0823   1.5588 C.3            1 <1>                0.0000
     17 C17          0.9855   2.2784   1.5634 C.2            1 <1>                0.0000
     18 O18          2.1006   2.7590   1.5012 O.2            1 <1>                0.0000
     19 H19          0.8377   4.8810   1.5383 H              1 <1>                0.0000
     20 H20         -0.7482   4.8206   0.7325 H              1 <1>                0.0000
     21 H21         -0.6533   4.8435   2.5098 H              1 <1>                0.0000
     22 H22         -1.8460   2.2967   2.6086 H              1 <1>                0.0000
     23 H23         -3.2445   2.1651   0.7010 H              1 <1>                0.0000
     24 H24         -2.0988   3.4155   0.1137 H              1 <1>                0.0000
     25 H25         -2.0091  -0.7057   0.6749 H              1 <1>                0.0000
     26 H26          0.8444  -0.3426  -0.3740 H              1 <1>                0.0000
     27 H27          0.3382  -1.6450   0.7286 H              1 <1>                0.0000
     28 H28         -1.3025  -2.4329  -0.9555 H              1 <1>                0.0000
     29 H29         -0.7962  -1.1304  -2.0580 H              1 <1>                0.0000
     30 H30          1.5089  -2.0440  -2.0787 H              1 <1>                0.0000
     31 H31          1.0026  -3.3464  -0.9761 H              1 <1>                0.0000
     32 H32         -0.6380  -4.1343  -2.6602 H              1 <1>                0.0000
     33 H33         -0.1318  -2.8318  -3.7628 H              1 <1>                0.0000
     34 H34         -0.9458   0.1925   2.5886 H              1 <1>                0.0000
     35 H35          2.0686  -0.2808   0.5238 H              1 <1>                0.0000
     36 H36          2.6664   0.2544   2.1127 H              1 <1>                0.0000
     37 H37          1.4021  -0.9946   2.0120 H              1 <1>                0.0000
@<TRIPOS>BOND
    1    1    2 1     
    2    1   19 1     
    3    1   20 1     
    4    1   21 1     
    5    2   17 am    
    6    2    3 1     
    7    3   14 1     
    8    3    4 1     
    9    3   22 1     
   10    4    5 1     
   11    4   23 1     
   12    4   24 1     
   13    5    6 1     
   14    6    7 1     
   15    6   14 1     
   16    6   25 1     
   17    7    8 1     
   18    7   26 1     
   19    7   27 1     
   20    8    9 1     
   21    8   28 1     
   22    8   29 1     
   23    9   10 1     
   24    9   30 1     
   25    9   31 1     
   26   10   11 1     
   27   10   32 1     
   28   10   33 1     
   29   11   12 ar    
   30   11   13 ar    
   31   14   15 1     
   32   14   34 1     
   33   15   16 1     
   34   15   17 am    
   35   16   35 1     
   36   16   36 1     
   37   16   37 1     
   38   17   18 2     
@<TRIPOS>SUBSTRUCTURE
      1 ****           1
