#       Name:                VZ4
#       Creating user name   gbret
#       Creation time:       Fri Sep  9 18:07:08 2016


#       File generated by GOLD software.
#

@<TRIPOS>MOLECULE
VZ4
    53    56     1
SMALL
NO_CHARGES


@<TRIPOS>ATOM
      1 C1          -4.6484   1.8126   1.5143 C.3            1 <1>                0.0000
      2 C2          -4.0426   0.4076   1.5129 C.3            1 <1>                0.0000
      3 C3          -2.9744   0.3221   0.4533 C.ar           1 <1>                0.0000
      4 C4          -1.6552   0.5574   0.7783 C.ar           1 <1>                0.0000
      5 C5          -0.6638   0.4826  -0.1903 C.ar           1 <1>                0.0000
      6 C6           0.7510   0.7738   0.2176 C.3            1 <1>                0.0000
      7 C7           1.0437   0.2928   1.6316 C.3            1 <1>                0.0000
      8 C8           2.5017   0.6046   2.0198 C.3            1 <1>                0.0000
      9 C9           3.4012  -0.0494   0.9929 C.3            1 <1>                0.0000
     10 C10          3.0691  -1.5403   0.9044 C.3            1 <1>                0.0000
     11 C11          3.1200   0.6089  -0.3867 C.3            1 <1>                0.0000
     12 C12          4.2753   0.0442  -1.2227 C.3            1 <1>                0.0000
     13 C13          5.4727   0.1179  -0.2360 C.3            1 <1>                0.0000
     14 C14          4.8802   0.1201   1.1697 C.2            1 <1>                0.0000
     15 O15          5.4798   0.2355   2.2116 O.2            1 <1>                0.0000
     16 C16          1.7296   0.1661  -0.7956 C.3            1 <1>                0.0000
     17 C17          1.3534   0.6869  -2.1826 C.3            1 <1>                0.0000
     18 C18          0.0270   0.0464  -2.5901 C.3            1 <1>                0.0000
     19 C19         -0.9956   0.1608  -1.4904 C.ar           1 <1>                0.0000
     20 C20         -2.3237  -0.0735  -1.8193 C.ar           1 <1>                0.0000
     21 C21         -3.3125   0.0008  -0.8532 C.ar           1 <1>                0.0000
     22 O22         -4.6100  -0.2290  -1.1855 O.3            1 <1>                0.0000
     23 S23         -4.9878  -1.7029  -1.2228 S.o2           1 <1>                0.0000
     24 N24         -5.0310  -2.2376   0.3439 N.pl3          1 <1>                0.0000
     25 O25         -6.3234  -1.7627  -1.7041 O.2            1 <1>                0.0000
     26 O26         -3.9054  -2.3789  -1.8478 O.2            1 <1>                0.0000
     27 H27         -3.8684   2.5444   1.7247 H              1 <1>                0.0000
     28 H28         -5.0874   2.0199   0.5383 H              1 <1>                0.0000
     29 H29         -5.4209   1.8744   2.2807 H              1 <1>                0.0000
     30 H30         -3.6036   0.2003   2.4888 H              1 <1>                0.0000
     31 H31         -4.8225  -0.3242   1.3025 H              1 <1>                0.0000
     32 H32         -1.3908   0.8025   1.7964 H              1 <1>                0.0000
     33 H33          0.8870   1.8552   0.2082 H              1 <1>                0.0000
     34 H34          0.3714   0.7940   2.3280 H              1 <1>                0.0000
     35 H35          0.8796  -0.7833   1.6863 H              1 <1>                0.0000
     36 H36          2.6620   1.6828   2.0182 H              1 <1>                0.0000
     37 H37          2.7152   0.2001   3.0092 H              1 <1>                0.0000
     38 H38          1.9956  -1.6657   0.7632 H              1 <1>                0.0000
     39 H39          3.6005  -1.9815   0.0611 H              1 <1>                0.0000
     40 H40          3.3748  -2.0360   1.8259 H              1 <1>                0.0000
     41 H41          3.1842   1.6950  -0.3211 H              1 <1>                0.0000
     42 H42          4.0754  -0.9875  -1.5122 H              1 <1>                0.0000
     43 H43          4.4579   0.6650  -2.0998 H              1 <1>                0.0000
     44 H44          6.1187  -0.7502  -0.3675 H              1 <1>                0.0000
     45 H45          6.0390   1.0340  -0.4039 H              1 <1>                0.0000
     46 H46          1.6639  -0.9216  -0.7691 H              1 <1>                0.0000
     47 H47          1.2438   1.7709  -2.1511 H              1 <1>                0.0000
     48 H48          2.1282   0.4159  -2.8998 H              1 <1>                0.0000
     49 H49         -0.3510   0.5452  -3.4825 H              1 <1>                0.0000
     50 H50          0.1935  -1.0071  -2.8147 H              1 <1>                0.0000
     51 H51         -2.5875  -0.3199  -2.8372 H              1 <1>                0.0000
     52 H52         -5.6874  -2.8992   0.6127 H              1 <1>                0.0000
     53 H53         -4.3999  -1.8891   0.9929 H              1 <1>                0.0000
@<TRIPOS>BOND
    1    1    2 1     
    2    1   27 1     
    3    1   28 1     
    4    1   29 1     
    5    2    3 1     
    6    2   30 1     
    7    2   31 1     
    8    3   21 ar    
    9    3    4 ar    
   10    4    5 ar    
   11    4   32 1     
   12    5   19 ar    
   13    5    6 1     
   14    6   16 1     
   15    6    7 1     
   16    6   33 1     
   17    7    8 1     
   18    7   34 1     
   19    7   35 1     
   20    8    9 1     
   21    8   36 1     
   22    8   37 1     
   23    9   14 1     
   24    9   10 1     
   25    9   11 1     
   26   10   38 1     
   27   10   39 1     
   28   10   40 1     
   29   11   12 1     
   30   11   16 1     
   31   11   41 1     
   32   12   13 1     
   33   12   42 1     
   34   12   43 1     
   35   13   14 1     
   36   13   44 1     
   37   13   45 1     
   38   14   15 2     
   39   16   17 1     
   40   16   46 1     
   41   17   18 1     
   42   17   47 1     
   43   17   48 1     
   44   18   19 1     
   45   18   49 1     
   46   18   50 1     
   47   19   20 ar    
   48   20   21 ar    
   49   20   51 1     
   50   21   22 1     
   51   22   23 1     
   52   23   24 1     
   53   23   25 2     
   54   23   26 2     
   55   24   52 1     
   56   24   53 1     
@<TRIPOS>SUBSTRUCTURE
      1 ****           1
@<TRIPOS>SET
DONOR_HYDROGENS      STATIC     ATOMS    <user>   **** ""
2 52 53
ATOM$RED        STATIC     ATOMS    COLORGROUP SYSTEM
2 52 53
