#       Name:                W01
#       Creating user name   gbret
#       Creation time:       Fri Sep  9 18:07:25 2016


#       File generated by GOLD software.
#

@<TRIPOS>MOLECULE
W01
    45    47     1
SMALL
NO_CHARGES


@<TRIPOS>ATOM
      1 C1          -2.1710   7.3869   3.2725 C.3            1 <1>                0.0000
      2 C2          -2.1505   5.8800   3.2642 C.2            1 <1>                0.0000
      3 C3          -2.1442   5.0393   2.1275 C.2            1 <1>                0.0000
      4 C4          -2.1249   3.7881   2.6459 C.2            1 <1>                0.0000
      5 C5          -2.1103   2.4927   1.8760 C.3            1 <1>                0.0000
      6 C6          -0.6630   2.0741   1.6096 C.3            1 <1>                0.0000
      7 C7          -0.6481   0.7589   0.8279 C.3            1 <1>                0.0000
      8 O8           0.7036   0.3679   0.5790 O.3            1 <1>                0.0000
      9 C9           0.8947  -0.7875  -0.1098 C.ar           1 <1>                0.0000
     10 C10          0.9991  -1.9919   0.5727 C.ar           1 <1>                0.0000
     11 C11          0.9000  -2.0162   2.0762 C.3            1 <1>                0.0000
     12 C12          1.1931  -3.1662  -0.1240 C.ar           1 <1>                0.0000
     13 C13          1.2842  -3.1431  -1.5142 C.ar           1 <1>                0.0000
     14 C14          1.1790  -1.9328  -2.1967 C.ar           1 <1>                0.0000
     15 C15          0.9795  -0.7622  -1.4953 C.ar           1 <1>                0.0000
     16 C16          0.8656   0.5471  -2.2327 C.3            1 <1>                0.0000
     17 C17          1.4934  -4.4053  -2.2668 C.2            1 <1>                0.0000
     18 N18          1.6069  -5.6367  -1.7491 N.2            1 <1>                0.0000
     19 N19          1.7777  -6.4518  -2.7341 N.2            1 <1>                0.0000
     20 N20          1.7752  -5.7839  -3.8346 N.pl3          1 <1>                0.0000
     21 C21          1.9416  -6.3556  -5.1732 C.3            1 <1>                0.0000
     22 N22          1.5981  -4.5342  -3.5745 N.2            1 <1>                0.0000
     23 O23         -2.1209   3.9295   3.9788 O.3            1 <1>                0.0000
     24 N24         -2.1295   5.0947   4.3022 N.2            1 <1>                0.0000
     25 H25         -1.1484   7.7642   3.2648 H              1 <1>                0.0000
     26 H26         -2.6981   7.7480   2.3894 H              1 <1>                0.0000
     27 H27         -2.6812   7.7384   4.1693 H              1 <1>                0.0000
     28 H28         -2.1532   5.3280   1.0869 H              1 <1>                0.0000
     29 H29         -2.6111   1.7187   2.4576 H              1 <1>                0.0000
     30 H30         -2.6299   2.6279   0.9274 H              1 <1>                0.0000
     31 H31         -0.1621   2.8480   1.0280 H              1 <1>                0.0000
     32 H32         -0.1433   1.9389   2.5581 H              1 <1>                0.0000
     33 H33         -1.1490  -0.0151   1.4095 H              1 <1>                0.0000
     34 H34         -1.1678   0.8941  -0.1207 H              1 <1>                0.0000
     35 H35         -0.1413  -2.1494   2.3696 H              1 <1>                0.0000
     36 H36          1.4958  -2.8413   2.4664 H              1 <1>                0.0000
     37 H37          1.2737  -1.0753   2.4802 H              1 <1>                0.0000
     38 H38          1.2746  -4.1029   0.4075 H              1 <1>                0.0000
     39 H39          1.2497  -1.9119  -3.2742 H              1 <1>                0.0000
     40 H40         -0.1787   0.7332  -2.4835 H              1 <1>                0.0000
     41 H41          1.2367   1.3537  -1.6003 H              1 <1>                0.0000
     42 H42          1.4565   0.5015  -3.1475 H              1 <1>                0.0000
     43 H43          0.9654  -6.6223  -5.5782 H              1 <1>                0.0000
     44 H44          2.4174  -5.6226  -5.8247 H              1 <1>                0.0000
     45 H45          2.5657  -7.2471  -5.1125 H              1 <1>                0.0000
@<TRIPOS>BOND
    1    1    2 1     
    2    1   25 1     
    3    1   26 1     
    4    1   27 1     
    5    2   24 2     
    6    2    3 1     
    7    3    4 2     
    8    3   28 1     
    9    4    5 1     
   10    4   23 1     
   11    5    6 1     
   12    5   29 1     
   13    5   30 1     
   14    6    7 1     
   15    6   31 1     
   16    6   32 1     
   17    7    8 1     
   18    7   33 1     
   19    7   34 1     
   20    8    9 1     
   21    9   15 ar    
   22    9   10 ar    
   23   10   11 1     
   24   10   12 ar    
   25   11   35 1     
   26   11   36 1     
   27   11   37 1     
   28   12   13 ar    
   29   12   38 1     
   30   13   14 ar    
   31   13   17 1     
   32   14   15 ar    
   33   14   39 1     
   34   15   16 1     
   35   16   40 1     
   36   16   41 1     
   37   16   42 1     
   38   17   22 2     
   39   17   18 1     
   40   18   19 2     
   41   19   20 1     
   42   20   21 1     
   43   20   22 1     
   44   21   43 1     
   45   21   44 1     
   46   21   45 1     
   47   23   24 1     
@<TRIPOS>SUBSTRUCTURE
      1 ****           1
