#       Name:                W05
#       Creating user name   gbret
#       Creation time:       Fri Sep  9 18:07:38 2016


#       File generated by GOLD software.
#

@<TRIPOS>MOLECULE
W05
    42    41     1
SMALL
NO_CHARGES


@<TRIPOS>ATOM
      1 C1          -0.1567   2.4951   5.4513 C.3            1 <1>                0.0000
      2 C2          -0.1359   0.9652   5.4429 C.3            1 <1>                0.0000
      3 N3           0.5498   0.4928   4.2376 N.am           1 <1>                0.0000
      4 C4          -0.1318   0.3612   3.0824 C.2            1 <1>                0.0000
      5 O5          -1.3128   0.6338   3.0406 O.2            1 <1>                0.0000
      6 C6           0.5736  -0.1248   1.8425 C.3            1 <1>                0.0000
      7 C7           1.1455  -1.5212   2.0953 C.3            1 <1>                0.0000
      8 S8           2.1194  -2.0452   0.6574 S.3            1 <1>                0.0000
      9 N9          -0.3777  -0.1809   0.7297 N.am           1 <1>                0.0000
     10 C10          0.0644  -0.0887  -0.5401 C.2            1 <1>                0.0000
     11 O11          1.2498   0.0407  -0.7616 O.2            1 <1>                0.0000
     12 C12         -0.9141  -0.1464  -1.6847 C.3            1 <1>                0.0000
     13 C13         -0.1580  -0.0201  -3.0089 C.3            1 <1>                0.0000
     14 C14         -1.1515  -0.0787  -4.1710 C.3            1 <1>                0.0000
     15 C15         -0.3955   0.0476  -5.4951 C.3            1 <1>                0.0000
     16 N16          0.4794  -1.1190  -5.6726 N.4            1 <1>                0.0000
     17 H17          1.1399  -1.1630  -4.9111 H              1 <1>                0.0000
     18 H18         -0.0787  -1.9595  -5.6829 H              1 <1>                0.0000
     19 H19          0.9780  -1.0357  -6.5459 H              1 <1>                0.0000
     20 C20         -1.3819   0.1135  -6.6325 C.2            1 <1>                0.0000
     21 O21         -2.0796   1.1027  -6.7779 O.co2          1 <1>                0.0000
     22 O22         -1.4823  -0.8226  -7.4073 O.co2          1 <1>                0.0000
     23 C23          0.5929   0.4660   6.6638 C.2            1 <1>                0.0000
     24 O24          0.0899   0.5904   7.7674 O.co2          1 <1>                0.0000
     25 O25          1.6856  -0.0623   6.5479 O.co2          1 <1>                0.0000
     26 H26          0.8659   2.8724   5.4436 H              1 <1>                0.0000
     27 H27         -0.6839   2.8561   4.5683 H              1 <1>                0.0000
     28 H28         -0.6669   2.8466   6.3481 H              1 <1>                0.0000
     29 H29         -1.1585   0.5879   5.4507 H              1 <1>                0.0000
     30 H30          1.4944   0.2747   4.2710 H              1 <1>                0.0000
     31 H31          1.3840   0.5601   1.5935 H              1 <1>                0.0000
     32 H32          1.7847  -1.4977   2.9780 H              1 <1>                0.0000
     33 H33          0.3287  -2.2246   2.2569 H              1 <1>                0.0000
     34 H34          2.5527  -3.2674   1.0146 H              1 <1>                0.0000
     35 H35         -1.3257  -0.2844   0.9069 H              1 <1>                0.0000
     36 H36         -1.4468  -1.0970  -1.6598 H              1 <1>                0.0000
     37 H37         -1.6277   0.6725  -1.5943 H              1 <1>                0.0000
     38 H38          0.3747   0.9305  -3.0338 H              1 <1>                0.0000
     39 H39          0.5556  -0.8390  -3.0993 H              1 <1>                0.0000
     40 H40         -1.6842  -1.0293  -4.1460 H              1 <1>                0.0000
     41 H41         -1.8652   0.7403  -4.0805 H              1 <1>                0.0000
     42 H42          0.2075   0.9556  -5.4841 H              1 <1>                0.0000
@<TRIPOS>BOND
    1    1    2 1     
    2    1   26 1     
    3    1   27 1     
    4    1   28 1     
    5    2    3 1     
    6    2   23 1     
    7    2   29 1     
    8    3    4 am    
    9    3   30 1     
   10    4    5 2     
   11    4    6 1     
   12    6    7 1     
   13    6    9 1     
   14    6   31 1     
   15    7    8 1     
   16    7   32 1     
   17    7   33 1     
   18    8   34 1     
   19    9   10 am    
   20    9   35 1     
   21   10   11 2     
   22   10   12 1     
   23   12   13 1     
   24   12   36 1     
   25   12   37 1     
   26   13   14 1     
   27   13   38 1     
   28   13   39 1     
   29   14   15 1     
   30   14   40 1     
   31   14   41 1     
   32   15   16 1     
   33   15   20 1     
   34   15   42 1     
   35   16   17 1     
   36   16   18 1     
   37   16   19 1     
   38   20   21 ar    
   39   20   22 ar    
   40   23   24 ar    
   41   23   25 ar    
@<TRIPOS>SUBSTRUCTURE
      1 ****           1
@<TRIPOS>SET
DONOR_HYDROGENS      STATIC     ATOMS    <user>   **** ""
5 30 35 17 18 19
ATOM$RED        STATIC     ATOMS    COLORGROUP SYSTEM
5 30 35 17 18 19
