#       Name:                W72
#       Creating user name   gbret
#       Creation time:       Fri Sep  9 18:10:28 2016


#       File generated by GOLD software.
#

@<TRIPOS>MOLECULE
W72
    42    42     1
SMALL
NO_CHARGES


@<TRIPOS>ATOM
      1 O1           2.5975   2.2552   2.6306 O.3            1 <1>                0.0000
      2 C2           2.6169   0.8263   2.6227 C.3            1 <1>                0.0000
      3 C3           1.1815   0.2968   2.6336 C.3            1 <1>                0.0000
      4 C4           0.3657   0.9730   3.7635 C.3            1 <1>                0.0000
      5 O5           0.7219   2.3503   3.8982 O.3            1 <1>                0.0000
      6 C6          -1.0853   0.8232   3.2352 C.3            1 <1>                0.0000
      7 O7          -1.9254   1.8489   3.7683 O.3            1 <1>                0.0000
      8 C8          -0.9191   0.9918   1.7103 C.3            1 <1>                0.0000
      9 N9           0.4839   0.6749   1.3861 N.4            1 <1>                0.0000
     10 H10          0.9296   1.4837   0.9796 H              1 <1>                0.0000
     11 C11          0.5311  -0.4458   0.4375 C.3            1 <1>                0.0000
     12 C12         -0.0697  -0.0078  -0.8997 C.3            1 <1>                0.0000
     13 O13          0.7479   1.0117  -1.4780 O.3            1 <1>                0.0000
     14 C14         -0.1350  -1.2076  -1.8469 C.3            1 <1>                0.0000
     15 O15         -0.9525  -2.2270  -1.2686 O.3            1 <1>                0.0000
     16 C16         -0.7358  -0.7695  -3.1841 C.3            1 <1>                0.0000
     17 O17          0.0817   0.2500  -3.7624 O.3            1 <1>                0.0000
     18 C18         -0.8012  -1.9693  -4.1313 C.3            1 <1>                0.0000
     19 O19         -1.6187  -2.9887  -3.5530 O.3            1 <1>                0.0000
     20 C20         -1.3929  -1.5378  -5.4484 C.2            1 <1>                0.0000
     21 O21         -0.7984  -0.7381  -6.1510 O.co2          1 <1>                0.0000
     22 O22         -2.4660  -1.9884  -5.8114 O.co2          1 <1>                0.0000
     23 H23          3.4754   2.6605   2.6244 H              1 <1>                0.0000
     24 H24          3.1271   0.4748   1.7259 H              1 <1>                0.0000
     25 H25          3.1441   0.4653   3.5058 H              1 <1>                0.0000
     26 H26          1.1783  -0.7863   2.7569 H              1 <1>                0.0000
     27 H27          0.4944   0.4444   4.7081 H              1 <1>                0.0000
     28 H28          0.2371   2.8158   4.5935 H              1 <1>                0.0000
     29 H29         -1.4831  -0.1627   3.4756 H              1 <1>                0.0000
     30 H30         -2.8436   1.8004   3.4689 H              1 <1>                0.0000
     31 H31         -1.5848   0.3057   1.1867 H              1 <1>                0.0000
     32 H32         -1.1427   2.0196   1.4243 H              1 <1>                0.0000
     33 H33          1.5665  -0.7518   0.2878 H              1 <1>                0.0000
     34 H34         -0.0413  -1.2835   0.8360 H              1 <1>                0.0000
     35 H35         -1.0746   0.3814  -0.7364 H              1 <1>                0.0000
     36 H36          1.6581   0.7349  -1.6511 H              1 <1>                0.0000
     37 H37          0.8699  -1.5968  -2.0102 H              1 <1>                0.0000
     38 H38         -1.8628  -1.9502  -1.0955 H              1 <1>                0.0000
     39 H39         -1.7407  -0.3803  -3.0208 H              1 <1>                0.0000
     40 H40          0.9920  -0.0268  -3.9355 H              1 <1>                0.0000
     41 H41          0.2038  -2.3585  -4.2945 H              1 <1>                0.0000
     42 H42         -2.5289  -2.7119  -3.3798 H              1 <1>                0.0000
@<TRIPOS>BOND
    1    1    2 1     
    2    1   23 1     
    3    2    3 1     
    4    2   24 1     
    5    2   25 1     
    6    3    9 1     
    7    3    4 1     
    8    3   26 1     
    9    4    5 1     
   10    4    6 1     
   11    4   27 1     
   12    5   28 1     
   13    6    7 1     
   14    6    8 1     
   15    6   29 1     
   16    7   30 1     
   17    8    9 1     
   18    8   31 1     
   19    8   32 1     
   20    9   10 1     
   21    9   11 1     
   22   11   12 1     
   23   11   33 1     
   24   11   34 1     
   25   12   13 1     
   26   12   14 1     
   27   12   35 1     
   28   13   36 1     
   29   14   15 1     
   30   14   16 1     
   31   14   37 1     
   32   15   38 1     
   33   16   17 1     
   34   16   18 1     
   35   16   39 1     
   36   17   40 1     
   37   18   19 1     
   38   18   20 1     
   39   18   41 1     
   40   19   42 1     
   41   20   21 ar    
   42   20   22 ar    
@<TRIPOS>SUBSTRUCTURE
      1 ****           1
@<TRIPOS>SET
DONOR_HYDROGENS      STATIC     ATOMS    <user>   **** ""
8 23 28 30 10 36 38 40 42
ATOM$RED        STATIC     ATOMS    COLORGROUP SYSTEM
8 23 28 30 10 36 38 40 42
