#       Name:                W7D
#       Creating user name   gbret
#       Creation time:       Fri Sep  9 18:11:04 2016


#       File generated by GOLD software.
#

@<TRIPOS>MOLECULE
W7D
    40    42     1
SMALL
NO_CHARGES


@<TRIPOS>ATOM
      1 C1          -0.5080   5.3335  -0.4496 C.3            1 <1>                0.0000
      2 O2          -0.5002   3.9284  -0.1893 O.3            1 <1>                0.0000
      3 C3          -1.7036   3.2996  -0.1630 C.ar           1 <1>                0.0000
      4 C4          -2.8532   4.0045  -0.3848 C.ar           1 <1>                0.0000
      5 C5          -4.0943   3.3747  -0.3606 C.ar           1 <1>                0.0000
      6 C6          -4.1999   2.0394  -0.1156 C.ar           1 <1>                0.0000
      7 C7          -3.0413   1.2789   0.1169 C.ar           1 <1>                0.0000
      8 C8          -3.1137  -0.1013   0.3724 C.ar           1 <1>                0.0000
      9 C9          -1.9704  -0.8060   0.5928 C.ar           1 <1>                0.0000
     10 C10         -0.7258  -0.1795   0.5697 C.ar           1 <1>                0.0000
     11 C11          0.5190  -0.9916   0.8187 C.3            1 <1>                0.0000
     12 C12          1.0485  -1.5339  -0.5103 C.3            1 <1>                0.0000
     13 C13          2.2933  -2.3460  -0.2613 C.2            1 <1>                0.0000
     14 C14          2.2181  -3.6834  -0.0374 C.2            1 <1>                0.0000
     15 N15          3.3758  -4.3983   0.1873 N.am           1 <1>                0.0000
     16 H16          3.3221  -5.3535   0.3473 H              1 <1>                0.0000
     17 C17          4.5764  -3.7961   0.1883 C.2            1 <1>                0.0000
     18 O18          5.5726  -4.4633   0.3902 O.2            1 <1>                0.0000
     19 N19          4.7065  -2.4756  -0.0284 N.am           1 <1>                0.0000
     20 H20          5.5879  -2.0706  -0.0216 H              1 <1>                0.0000
     21 C21          3.6194  -1.7110  -0.2608 C.2            1 <1>                0.0000
     22 O22          3.7336  -0.5160  -0.4577 O.2            1 <1>                0.0000
     23 C23          0.9036  -4.3684  -0.0340 C.2            1 <1>                0.0000
     24 O24         -0.1259  -3.7153  -0.1174 O.co2          1 <1>                0.0000
     25 O25          0.8494  -5.5862   0.0522 O.co2          1 <1>                0.0000
     26 C26         -0.6177   1.1554   0.3250 C.ar           1 <1>                0.0000
     27 C27         -1.7751   1.9143   0.0877 C.ar           1 <1>                0.0000
     28 H28          0.5149   5.7099  -0.4428 H              1 <1>                0.0000
     29 H29         -0.9572   5.5199  -1.4250 H              1 <1>                0.0000
     30 H30         -1.0875   5.8424   0.3206 H              1 <1>                0.0000
     31 H31         -2.7980   5.0650  -0.5812 H              1 <1>                0.0000
     32 H32         -4.9879   3.9545  -0.5387 H              1 <1>                0.0000
     33 H33         -5.1707   1.5665  -0.0997 H              1 <1>                0.0000
     34 H34         -4.0714  -0.5999   0.3940 H              1 <1>                0.0000
     35 H35         -2.0285  -1.8665   0.7889 H              1 <1>                0.0000
     36 H36          1.2777  -0.3609   1.2820 H              1 <1>                0.0000
     37 H37          0.2833  -1.8235   1.4825 H              1 <1>                0.0000
     38 H38          0.2898  -2.1646  -0.9736 H              1 <1>                0.0000
     39 H39          1.2842  -0.7020  -1.1741 H              1 <1>                0.0000
     40 H40          0.3535   1.6275   0.3098 H              1 <1>                0.0000
@<TRIPOS>BOND
    1    1    2 1     
    2    1   28 1     
    3    1   29 1     
    4    1   30 1     
    5    2    3 1     
    6    3   27 ar    
    7    3    4 ar    
    8    4    5 ar    
    9    4   31 1     
   10    5    6 ar    
   11    5   32 1     
   12    6    7 ar    
   13    6   33 1     
   14    7   27 ar    
   15    7    8 ar    
   16    8    9 ar    
   17    8   34 1     
   18    9   10 ar    
   19    9   35 1     
   20   10   11 1     
   21   10   26 ar    
   22   11   12 1     
   23   11   36 1     
   24   11   37 1     
   25   12   13 1     
   26   12   38 1     
   27   12   39 1     
   28   13   21 1     
   29   13   14 2     
   30   14   15 1     
   31   14   23 1     
   32   15   16 1     
   33   15   17 1     
   34   17   18 2     
   35   17   19 1     
   36   19   20 1     
   37   19   21 1     
   38   21   22 2     
   39   23   24 ar    
   40   23   25 ar    
   41   26   27 ar    
   42   26   40 1     
@<TRIPOS>SUBSTRUCTURE
      1 ****           1
@<TRIPOS>SET
DONOR_HYDROGENS      STATIC     ATOMS    <user>   **** ""
2 16 20
ATOM$RED        STATIC     ATOMS    COLORGROUP SYSTEM
2 16 20
