#       Name:                WCR
#       Creating user name   gbret
#       Creation time:       Fri Sep  9 18:14:11 2016


#       File generated by GOLD software.
#

@<TRIPOS>MOLECULE
WCR
    36    37     1
SMALL
NO_CHARGES


@<TRIPOS>ATOM
      1 N1           2.3168   2.8386  -2.2108 N.3            1 <1>                0.0000
      2 C2           2.0757   1.3944  -2.3295 C.3            1 <1>                0.0000
      3 C3           0.6109   1.0935  -2.0055 C.3            1 <1>                0.0000
      4 O4          -0.2438   1.7913  -2.9136 O.3            1 <1>                0.0000
      5 N5           0.3632  -0.3555  -2.0911 N.4            1 <1>                0.0000
      6 H6          -0.3574  -0.5431  -2.7720 H              1 <1>                0.0000
      7 H7           1.2129  -0.8368  -2.3450 H              1 <1>                0.0000
      8 C8          -0.0592  -0.7649  -0.8212 C.2            1 <1>                0.0000
      9 C9          -0.3904  -2.0247  -0.4679 C.2            1 <1>                0.0000
     10 C10         -0.9947  -2.2846   0.8467 C.ar           1 <1>                0.0000
     11 C11         -1.9764  -1.4236   1.3509 C.ar           1 <1>                0.0000
     12 C12         -2.5391  -1.6714   2.5826 C.ar           1 <1>                0.0000
     13 C13         -2.1338  -2.7743   3.3255 C.ar           1 <1>                0.0000
     14 O14         -2.6918  -3.0142   4.5394 O.3            1 <1>                0.0000
     15 C15         -1.1592  -3.6325   2.8293 C.ar           1 <1>                0.0000
     16 C16         -0.5946  -3.3971   1.5960 C.ar           1 <1>                0.0000
     17 C17         -0.0801   0.4014   0.0569 C.2            1 <1>                0.0000
     18 O18         -0.4017   0.3886   1.2307 O.2            1 <1>                0.0000
     19 N19          0.3100   1.4916  -0.6268 N.am           1 <1>                0.0000
     20 C20          0.4164   2.8487  -0.0853 C.3            1 <1>                0.0000
     21 C21          1.8018   3.0614   0.4683 C.2            1 <1>                0.0000
     22 O22          2.6241   2.1628   0.4153 O.co2          1 <1>                0.0000
     23 O23          2.1004   4.1322   0.9690 O.co2          1 <1>                0.0000
     24 H24          3.2780   3.0631  -2.4201 H              1 <1>                0.0000
     25 H25          1.6867   3.3602  -2.8016 H              1 <1>                0.0000
     26 H26          2.2964   1.0716  -3.3470 H              1 <1>                0.0000
     27 H27          2.7195   0.8599  -1.6310 H              1 <1>                0.0000
     28 H28         -0.1351   2.7520  -2.8967 H              1 <1>                0.0000
     29 H29         -0.2114  -2.8419  -1.1510 H              1 <1>                0.0000
     30 H30         -2.2915  -0.5662   0.7748 H              1 <1>                0.0000
     31 H31         -3.2967  -1.0077   2.9725 H              1 <1>                0.0000
     32 H32         -3.4801  -3.5733   4.5063 H              1 <1>                0.0000
     33 H33         -0.8477  -4.4880   3.4103 H              1 <1>                0.0000
     34 H34          0.1625  -4.0644   1.2114 H              1 <1>                0.0000
     35 H35          0.2270   3.5722  -0.8782 H              1 <1>                0.0000
     36 H36         -0.3169   2.9810   0.7101 H              1 <1>                0.0000
@<TRIPOS>BOND
    1    1    2 1     
    2    1   24 1     
    3    1   25 1     
    4    2    3 1     
    5    2   26 1     
    6    2   27 1     
    7    3   19 1     
    8    3    4 1     
    9    3    5 1     
   10    4   28 1     
   11    5    6 1     
   12    5    7 1     
   13    5    8 1     
   14    8    9 2     
   15    8   17 1     
   16    9   10 1     
   17    9   29 1     
   18   10   16 ar    
   19   10   11 ar    
   20   11   12 ar    
   21   11   30 1     
   22   12   13 ar    
   23   12   31 1     
   24   13   14 1     
   25   13   15 ar    
   26   14   32 1     
   27   15   16 ar    
   28   15   33 1     
   29   16   34 1     
   30   17   18 2     
   31   17   19 am    
   32   19   20 1     
   33   20   21 1     
   34   20   35 1     
   35   20   36 1     
   36   21   22 ar    
   37   21   23 ar    
@<TRIPOS>SUBSTRUCTURE
      1 ****           1
@<TRIPOS>SET
DONOR_HYDROGENS      STATIC     ATOMS    <user>   **** ""
6 24 25 28 6 7 32
ATOM$RED        STATIC     ATOMS    COLORGROUP SYSTEM
6 24 25 28 6 7 32
