#       Name:                WDU
#       Creating user name   gbret
#       Creation time:       Fri Sep  9 18:14:35 2016


#       File generated by GOLD software.
#

@<TRIPOS>MOLECULE
WDU
    28    29     1
SMALL
NO_CHARGES


@<TRIPOS>ATOM
      1 O1           5.1070  -4.3377  -0.0496 O.2            1 <1>                0.0000
      2 N2           5.0905  -3.1198  -0.0429 N.pl3          1 <1>                0.0000
      3 O3           6.1369  -2.4965  -0.0495 O.2            1 <1>                0.0000
      4 C4           3.7986  -2.3972  -0.0328 C.2            1 <1>                0.0000
      5 N5           2.5629  -2.9563  -0.0241 N.pl3          1 <1>                0.0000
      6 H6           2.3846  -3.9098  -0.0236 H              1 <1>                0.0000
      7 N7           1.6628  -2.0397  -0.0160 N.2            1 <1>                0.0000
      8 C8           2.2280  -0.8487  -0.0188 C.2            1 <1>                0.0000
      9 C9           1.5313   0.4532  -0.0115 C.2            1 <1>                0.0000
     10 O10          2.1728   1.4860  -0.0147 O.2            1 <1>                0.0000
     11 N11          0.1843   0.4967  -0.0011 N.am           1 <1>                0.0000
     12 C12         -0.5069   1.7884   0.0062 C.3            1 <1>                0.0000
     13 C13         -1.9966   1.5610   0.0172 C.ar           1 <1>                0.0000
     14 C14         -2.6878   1.4530  -1.1752 C.ar           1 <1>                0.0000
     15 C15         -4.0542   1.2448  -1.1657 C.ar           1 <1>                0.0000
     16 C16         -4.7300   1.1441   0.0373 C.ar           1 <1>                0.0000
     17 Cl17        -6.4461   0.8821   0.0499 Cl             1 <1>                0.0000
     18 C18         -4.0376   1.2518   1.2302 C.ar           1 <1>                0.0000
     19 C19         -2.6705   1.4548   1.2195 C.ar           1 <1>                0.0000
     20 C20          3.6286  -1.0533  -0.0247 C.2            1 <1>                0.0000
     21 Cl21         4.8678   0.1624  -0.0304 Cl             1 <1>                0.0000
     22 H22         -0.3276  -0.3272   0.0014 H              1 <1>                0.0000
     23 H23         -0.2185   2.3498   0.8949 H              1 <1>                0.0000
     24 H24         -0.2320   2.3526  -0.8850 H              1 <1>                0.0000
     25 H25         -2.1601   1.5316  -2.1142 H              1 <1>                0.0000
     26 H26         -4.5942   1.1612  -2.0973 H              1 <1>                0.0000
     27 H27         -4.5647   1.1736   2.1696 H              1 <1>                0.0000
     28 H28         -2.1298   1.5385   2.1507 H              1 <1>                0.0000
@<TRIPOS>BOND
    1    1    2 2     
    2    2    3 2     
    3    2    4 1     
    4    4   20 2     
    5    4    5 1     
    6    5    6 1     
    7    5    7 1     
    8    7    8 2     
    9    8    9 1     
   10    8   20 1     
   11    9   10 2     
   12    9   11 am    
   13   11   12 1     
   14   11   22 1     
   15   12   13 1     
   16   12   23 1     
   17   12   24 1     
   18   13   19 ar    
   19   13   14 ar    
   20   14   15 ar    
   21   14   25 1     
   22   15   16 ar    
   23   15   26 1     
   24   16   17 1     
   25   16   18 ar    
   26   18   19 ar    
   27   18   27 1     
   28   19   28 1     
   29   20   21 1     
@<TRIPOS>SUBSTRUCTURE
      1 ****           1
@<TRIPOS>SET
DONOR_HYDROGENS      STATIC     ATOMS    <user>   **** ""
2 6 22
ATOM$RED        STATIC     ATOMS    COLORGROUP SYSTEM
2 6 22
