#       Name:                WF8
#       Creating user name   gbret
#       Creation time:       Fri Sep  9 18:15:03 2016


#       File generated by GOLD software.
#

@<TRIPOS>MOLECULE
WF8
    38    40     1
SMALL
NO_CHARGES


@<TRIPOS>ATOM
      1 C1           3.1789   1.8830   1.7126 C.3            1 <1>                0.0000
      2 C2           2.8859   0.3915   1.8870 C.3            1 <1>                0.0000
      3 C3           3.4923  -0.0968   3.2041 C.3            1 <1>                0.0000
      4 N4           1.4367   0.1778   1.9077 N.pl3          1 <1>                0.0000
      5 C5           0.7412   0.0402   0.7208 C.2            1 <1>                0.0000
      6 C6           1.4015   0.0966  -0.4919 C.2            1 <1>                0.0000
      7 C7           0.6660  -0.0465  -1.6754 C.2            1 <1>                0.0000
      8 O8           1.2366   0.0009  -2.7542 O.2            1 <1>                0.0000
      9 N9          -0.6650  -0.2363  -1.6309 N.am           1 <1>                0.0000
     10 N10         -1.3493  -0.2960  -0.4134 N.2            1 <1>                0.0000
     11 C11         -0.7079  -0.1739   0.7262 C.2            1 <1>                0.0000
     12 C12         -1.4476  -0.2399   2.0096 C.2            1 <1>                0.0000
     13 N13         -0.9064  -0.1236   3.2301 N.2            1 <1>                0.0000
     14 C14         -1.8390  -0.2291   4.1392 C.2            1 <1>                0.0000
     15 N15         -3.0166  -0.4181   3.5166 N.pl3          1 <1>                0.0000
     16 H16         -3.8839  -0.5291   3.9367 H              1 <1>                0.0000
     17 N17         -2.7448  -0.4166   2.1388 N.2            1 <1>                0.0000
     18 C18         -1.3783  -0.3761  -2.8263 C.ar           1 <1>                0.0000
     19 C19         -2.2811  -1.4207  -2.9800 C.ar           1 <1>                0.0000
     20 C20         -2.9837  -1.5559  -4.1613 C.ar           1 <1>                0.0000
     21 C21         -2.7891  -0.6528  -5.1905 C.ar           1 <1>                0.0000
     22 C22         -1.8912   0.3882  -5.0407 C.ar           1 <1>                0.0000
     23 C23         -1.1896   0.5325  -3.8599 C.ar           1 <1>                0.0000
     24 H24          4.2572   2.0421   1.6972 H              1 <1>                0.0000
     25 H25          2.7470   2.2309   0.7743 H              1 <1>                0.0000
     26 H26          2.7416   2.4387   2.5421 H              1 <1>                0.0000
     27 H27          3.3232  -0.1641   1.0575 H              1 <1>                0.0000
     28 H28          3.0549   0.4589   4.0336 H              1 <1>                0.0000
     29 H29          3.2835  -1.1594   3.3283 H              1 <1>                0.0000
     30 H30          4.5705   0.0622   3.1887 H              1 <1>                0.0000
     31 H31          0.9651   0.1328   2.7542 H              1 <1>                0.0000
     32 H32          2.4699   0.2494  -0.5268 H              1 <1>                0.0000
     33 H33         -1.6900  -0.1743   5.2075 H              1 <1>                0.0000
     34 H34         -2.4332  -2.1264  -2.1768 H              1 <1>                0.0000
     35 H35         -3.6854  -2.3679  -4.2816 H              1 <1>                0.0000
     36 H36         -3.3395  -0.7610  -6.1134 H              1 <1>                0.0000
     37 H37         -1.7414   1.0914  -5.8465 H              1 <1>                0.0000
     38 H38         -0.4888   1.3459  -3.7435 H              1 <1>                0.0000
@<TRIPOS>BOND
    1    1    2 1     
    2    1   24 1     
    3    1   25 1     
    4    1   26 1     
    5    2    3 1     
    6    2    4 1     
    7    2   27 1     
    8    3   28 1     
    9    3   29 1     
   10    3   30 1     
   11    4    5 1     
   12    4   31 1     
   13    5   11 1     
   14    5    6 2     
   15    6    7 1     
   16    6   32 1     
   17    7    8 2     
   18    7    9 am    
   19    9   10 1     
   20    9   18 1     
   21   10   11 2     
   22   11   12 1     
   23   12   17 2     
   24   12   13 1     
   25   13   14 2     
   26   14   15 1     
   27   14   33 1     
   28   15   16 1     
   29   15   17 1     
   30   18   23 ar    
   31   18   19 ar    
   32   19   20 ar    
   33   19   34 1     
   34   20   21 ar    
   35   20   35 1     
   36   21   22 ar    
   37   21   36 1     
   38   22   23 ar    
   39   22   37 1     
   40   23   38 1     
@<TRIPOS>SUBSTRUCTURE
      1 ****           1
@<TRIPOS>SET
DONOR_HYDROGENS      STATIC     ATOMS    <user>   **** ""
2 31 16
ATOM$RED        STATIC     ATOMS    COLORGROUP SYSTEM
2 31 16
