#       Name:                WN6
#       Creating user name   gbret
#       Creation time:       Fri Sep  9 18:17:22 2016


#       File generated by GOLD software.
#

@<TRIPOS>MOLECULE
WN6
    38    38     1
SMALL
NO_CHARGES


@<TRIPOS>ATOM
      1 C1           2.5408   5.0593   0.3155 C.3            1 <1>                0.0000
      2 C2           2.5616   3.5294   0.3071 C.3            1 <1>                0.0000
      3 N3           3.2721   3.0428   1.4972 N.4            1 <1>                0.0000
      4 H4           3.2857   2.0339   1.4917 H              1 <1>                0.0000
      5 H5           4.2187   3.3920   1.4901 H              1 <1>                0.0000
      6 H6           2.7998   3.3682   2.3274 H              1 <1>                0.0000
      7 P7           0.8513   2.8984   0.3201 P.3            1 <1>                0.0000
      8 O8           0.1282   3.3967   1.5912 O.co2          1 <1>                0.0000
      9 O9           0.1041   3.4102  -0.9316 O.co2          1 <1>                0.0000
     10 C10          0.8760   1.0756   0.3100 C.3            1 <1>                0.0000
     11 C11         -0.5551   0.5468   0.1951 C.3            1 <1>                0.0000
     12 C12         -0.5223  -0.9345  -0.1865 C.3            1 <1>                0.0000
     13 C13         -1.9497  -1.4318  -0.4232 C.3            1 <1>                0.0000
     14 C14         -1.9174  -2.8909  -0.7991 C.ar           1 <1>                0.0000
     15 C15         -1.8097  -3.2603  -2.1268 C.ar           1 <1>                0.0000
     16 C16         -1.7801  -4.5986  -2.4716 C.ar           1 <1>                0.0000
     17 C17         -1.8577  -5.5675  -1.4887 C.ar           1 <1>                0.0000
     18 C18         -1.9645  -5.1981  -0.1609 C.ar           1 <1>                0.0000
     19 C19         -1.9898  -3.8597   0.1842 C.ar           1 <1>                0.0000
     20 C20         -1.2584   0.7093   1.5180 C.2            1 <1>                0.0000
     21 O21         -0.6696   1.2023   2.4650 O.co2          1 <1>                0.0000
     22 O22         -2.4162   0.3476   1.6413 O.co2          1 <1>                0.0000
     23 H23          3.5634   5.4366   0.3078 H              1 <1>                0.0000
     24 H24          2.0136   5.4203  -0.5675 H              1 <1>                0.0000
     25 H25          2.0306   5.4108   1.2123 H              1 <1>                0.0000
     26 H26          3.0718   3.1779  -0.5897 H              1 <1>                0.0000
     27 H27          1.4623   0.7249  -0.5393 H              1 <1>                0.0000
     28 H28          1.3241   0.7132   1.2352 H              1 <1>                0.0000
     29 H29         -1.0893   1.1078  -0.5717 H              1 <1>                0.0000
     30 H30          0.0627  -1.0621  -1.0973 H              1 <1>                0.0000
     31 H31         -0.0670  -1.5078   0.6210 H              1 <1>                0.0000
     32 H32         -2.5347  -1.3042   0.4876 H              1 <1>                0.0000
     33 H33         -2.4050  -0.8586  -1.2308 H              1 <1>                0.0000
     34 H34         -1.7491  -2.5033  -2.8948 H              1 <1>                0.0000
     35 H35         -1.6967  -4.8873  -3.5090 H              1 <1>                0.0000
     36 H36         -1.8353  -6.6131  -1.7582 H              1 <1>                0.0000
     37 H37         -2.0255  -5.9550   0.6070 H              1 <1>                0.0000
     38 H38         -2.0733  -3.5711   1.2216 H              1 <1>                0.0000
@<TRIPOS>BOND
    1    1    2 1     
    2    1   23 1     
    3    1   24 1     
    4    1   25 1     
    5    2    3 1     
    6    2    7 1     
    7    2   26 1     
    8    3    4 1     
    9    3    5 1     
   10    3    6 1     
   11    7    8 ar    
   12    7    9 ar    
   13    7   10 1     
   14   10   11 1     
   15   10   27 1     
   16   10   28 1     
   17   11   12 1     
   18   11   20 1     
   19   11   29 1     
   20   12   13 1     
   21   12   30 1     
   22   12   31 1     
   23   13   14 1     
   24   13   32 1     
   25   13   33 1     
   26   14   19 ar    
   27   14   15 ar    
   28   15   16 ar    
   29   15   34 1     
   30   16   17 ar    
   31   16   35 1     
   32   17   18 ar    
   33   17   36 1     
   34   18   19 ar    
   35   18   37 1     
   36   19   38 1     
   37   20   21 ar    
   38   20   22 ar    
@<TRIPOS>SUBSTRUCTURE
      1 ****           1
@<TRIPOS>SET
DONOR_HYDROGENS      STATIC     ATOMS    <user>   **** ""
3 4 5 6
ATOM$RED        STATIC     ATOMS    COLORGROUP SYSTEM
3 4 5 6
