#       Name:                WOO
#       Creating user name   gbret
#       Creation time:       Fri Sep  9 18:17:33 2016


#       File generated by GOLD software.
#

@<TRIPOS>MOLECULE
WOO
    24    24     1
SMALL
NO_CHARGES


@<TRIPOS>ATOM
      1 O1           2.0501   2.7486   0.6212 O.3            1 <1>                0.0000
      2 C2           2.0695   1.3197   0.6133 C.3            1 <1>                0.0000
      3 C3           0.6341   0.7902   0.6242 C.3            1 <1>                0.0000
      4 O4          -0.0213   1.1648  -0.5892 O.3            1 <1>                0.0000
      5 C5          -1.3832   0.7400  -0.6719 C.3            1 <1>                0.0000
      6 O6          -1.9478   1.1872  -1.9061 O.3            1 <1>                0.0000
      7 C7          -1.4444  -0.7883  -0.6066 C.3            1 <1>                0.0000
      8 O8          -0.7506  -1.3424  -1.7262 O.3            1 <1>                0.0000
      9 C9          -0.7835  -1.2630   0.6912 C.3            1 <1>                0.0000
     10 O10         -0.7706  -2.6915   0.7263 O.3            1 <1>                0.0000
     11 C11          0.6539  -0.7361   0.7416 C.3            1 <1>                0.0000
     12 O12          1.4033  -1.2888  -0.3424 O.3            1 <1>                0.0000
     13 H13          2.9280   3.1539   0.6150 H              1 <1>                0.0000
     14 H14          2.5797   0.9682  -0.2835 H              1 <1>                0.0000
     15 H15          2.5967   0.9587   1.4964 H              1 <1>                0.0000
     16 H16          0.0970   1.2131   1.4732 H              1 <1>                0.0000
     17 H17         -1.9469   1.1624   0.1599 H              1 <1>                0.0000
     18 H18         -1.9414   2.1479  -2.0163 H              1 <1>                0.0000
     19 H19         -2.4850  -1.1124  -0.6262 H              1 <1>                0.0000
     20 H20         -1.1131  -1.0791  -2.5832 H              1 <1>                0.0000
     21 H21         -1.3430  -0.8823   1.5457 H              1 <1>                0.0000
     22 H22         -1.6492  -3.0938   0.6906 H              1 <1>                0.0000
     23 H23          1.1140  -1.0228   1.6872 H              1 <1>                0.0000
     24 H24          1.4534  -2.2544  -0.3339 H              1 <1>                0.0000
@<TRIPOS>BOND
    1    1    2 1     
    2    1   13 1     
    3    2    3 1     
    4    2   14 1     
    5    2   15 1     
    6    3   11 1     
    7    3    4 1     
    8    3   16 1     
    9    4    5 1     
   10    5    6 1     
   11    5    7 1     
   12    5   17 1     
   13    6   18 1     
   14    7    8 1     
   15    7    9 1     
   16    7   19 1     
   17    8   20 1     
   18    9   10 1     
   19    9   11 1     
   20    9   21 1     
   21   10   22 1     
   22   11   12 1     
   23   11   23 1     
   24   12   24 1     
@<TRIPOS>SUBSTRUCTURE
      1 ****           1
@<TRIPOS>SET
DONOR_HYDROGENS      STATIC     ATOMS    <user>   **** ""
5 13 18 20 22 24
ATOM$RED        STATIC     ATOMS    COLORGROUP SYSTEM
5 13 18 20 22 24
