#       Name:                WUB
#       Creating user name   gbret
#       Creation time:       Fri Sep  9 18:20:35 2016


#       File generated by GOLD software.
#

@<TRIPOS>MOLECULE
WUB
    28    30     1
SMALL
NO_CHARGES


@<TRIPOS>ATOM
      1 O1           1.6748  -3.1761   0.8024 O.co2          1 <1>                0.0000
      2 C2           1.1809  -2.7958  -0.2454 C.2            1 <1>                0.0000
      3 O3           1.7486  -3.0150  -1.3019 O.co2          1 <1>                0.0000
      4 C4          -0.1342  -2.0601  -0.2351 C.3            1 <1>                0.0000
      5 C5          -1.2129  -2.9492   0.3846 C.3            1 <1>                0.0000
      6 C6          -2.4882  -2.1947   0.6151 C.2            1 <1>                0.0000
      7 C7          -2.5512  -0.8673   0.6641 C.2            1 <1>                0.0000
      8 C8          -1.3345  -0.0772   0.4739 C.2            1 <1>                0.0000
      9 N9          -1.3634   1.1868   0.1929 N.2            1 <1>                0.0000
     10 C10         -0.2372   1.9017  -0.0926 C.ar           1 <1>                0.0000
     11 C11         -0.3561   3.2738  -0.3475 C.ar           1 <1>                0.0000
     12 C12          0.7586   4.0165  -0.6701 C.ar           1 <1>                0.0000
     13 C13          2.0038   3.4154  -0.7461 C.ar           1 <1>                0.0000
     14 C14          2.1406   2.0653  -0.4856 C.ar           1 <1>                0.0000
     15 C15          1.0307   1.3068  -0.1458 C.ar           1 <1>                0.0000
     16 N16          1.1913  -0.0513   0.1545 N.pl3          1 <1>                0.0000
     17 C17         -0.0006  -0.7851   0.5974 C.3            1 <1>                0.0000
     18 H18         -0.4152  -1.8012  -1.2560 H              1 <1>                0.0000
     19 H19         -1.4112  -3.7865  -0.2846 H              1 <1>                0.0000
     20 H20         -0.8511  -3.3354   1.3375 H              1 <1>                0.0000
     21 H21         -3.4006  -2.7572   0.7475 H              1 <1>                0.0000
     22 H22         -3.4957  -0.3750   0.8429 H              1 <1>                0.0000
     23 H23         -1.3236   3.7505  -0.2913 H              1 <1>                0.0000
     24 H24          0.6606   5.0743  -0.8646 H              1 <1>                0.0000
     25 H25          2.8703   4.0034  -1.0101 H              1 <1>                0.0000
     26 H26          3.1133   1.6001  -0.5472 H              1 <1>                0.0000
     27 H27          2.0534  -0.4886   0.0737 H              1 <1>                0.0000
     28 H28          0.1492  -1.0784   1.6365 H              1 <1>                0.0000
@<TRIPOS>BOND
    1    1    2 ar    
    2    2    3 ar    
    3    2    4 1     
    4    4   17 1     
    5    4    5 1     
    6    4   18 1     
    7    5    6 1     
    8    5   19 1     
    9    5   20 1     
   10    6    7 2     
   11    6   21 1     
   12    7    8 1     
   13    7   22 1     
   14    8   17 1     
   15    8    9 2     
   16    9   10 1     
   17   10   15 ar    
   18   10   11 ar    
   19   11   12 ar    
   20   11   23 1     
   21   12   13 ar    
   22   12   24 1     
   23   13   14 ar    
   24   13   25 1     
   25   14   15 ar    
   26   14   26 1     
   27   15   16 1     
   28   16   17 1     
   29   16   27 1     
   30   17   28 1     
@<TRIPOS>SUBSTRUCTURE
      1 ****           1
@<TRIPOS>SET
DONOR_HYDROGENS      STATIC     ATOMS    <user>   **** ""
1 27
ATOM$RED        STATIC     ATOMS    COLORGROUP SYSTEM
1 27
