#       Name:                WWF
#       Creating user name   gbret
#       Creation time:       Fri Sep  9 18:21:20 2016


#       File generated by GOLD software.
#

@<TRIPOS>MOLECULE
WWF
    58    59     1
SMALL
NO_CHARGES


@<TRIPOS>ATOM
      1 C1          -3.9923   1.0741  -3.2159 C.3            1 <1>                0.0000
      2 C2          -3.7184  -0.4153  -2.9977 C.3            1 <1>                0.0000
      3 C3          -3.6792  -1.1301  -4.3499 C.3            1 <1>                0.0000
      4 C4          -2.3729  -0.5881  -2.2902 C.3            1 <1>                0.0000
      5 C5          -2.4764  -0.0545  -0.8600 C.3            1 <1>                0.0000
      6 O6          -3.5532  -0.7075  -0.1847 O.3            1 <1>                0.0000
      7 C7          -1.1869  -0.3248  -0.1284 C.2            1 <1>                0.0000
      8 S8          -0.4955  -1.8722   0.0970 S.3            1 <1>                0.0000
      9 C9           0.8496  -1.1523   0.9786 C.2            1 <1>                0.0000
     10 C10          2.0150  -1.8954   1.5792 C.3            1 <1>                0.0000
     11 C11          1.6791  -2.2938   3.0177 C.3            1 <1>                0.0000
     12 O12          2.7842  -2.9984   3.5872 O.3            1 <1>                0.0000
     13 P13          2.7787  -3.5683   5.0929 P.3            1 <1>                0.0000
     14 O14          2.7118  -2.3896   6.0895 O.co2          1 <1>                0.0000
     15 O15          1.5494  -4.4824   5.2931 O.co2          1 <1>                0.0000
     16 O16          4.1241  -4.4140   5.3516 O.3            1 <1>                0.0000
     17 P17          4.5508  -5.5365   6.4239 P.3            1 <1>                0.0000
     18 O18          3.9758  -6.9255   5.9828 O.co2          1 <1>                0.0000
     19 O19          6.1134  -5.6186   6.5004 O.co2          1 <1>                0.0000
     20 O20          3.9782  -5.1578   7.8322 O.co2          1 <1>                0.0000
     21 C21          0.6541   0.1691   1.0198 C.2            1 <1>                0.0000
     22 C22          1.6118   1.1140   1.6988 C.3            1 <1>                0.0000
     23 N23         -0.4420   0.5786   0.4137 N.pl3          1 <1>                0.0000
     24 C24         -0.8047   1.9972   0.3667 C.3            1 <1>                0.0000
     25 C25          0.0332   2.6957  -0.6731 C.ar           1 <1>                0.0000
     26 C26          1.3108   3.1297  -0.3780 C.ar           1 <1>                0.0000
     27 N27          2.0193   3.7404  -1.3171 N.ar           1 <1>                0.0000
     28 C28          1.5227   3.9376  -2.5218 C.ar           1 <1>                0.0000
     29 C29          2.3663   4.6368  -3.5564 C.3            1 <1>                0.0000
     30 N30          0.3094   3.5401  -2.8469 N.ar           1 <1>                0.0000
     31 C31         -0.4604   2.9152  -1.9605 C.ar           1 <1>                0.0000
     32 N32         -1.7358   2.4986  -2.3059 N.pl3          1 <1>                0.0000
     33 H33         -3.2637   1.4784  -3.9186 H              1 <1>                0.0000
     34 H34         -4.9966   1.2036  -3.6192 H              1 <1>                0.0000
     35 H35         -3.9116   1.6015  -2.2654 H              1 <1>                0.0000
     36 H36         -4.5099  -0.8440  -2.3829 H              1 <1>                0.0000
     37 H37         -2.8877  -0.7014  -4.9646 H              1 <1>                0.0000
     38 H38         -3.4841  -2.1911  -4.1944 H              1 <1>                0.0000
     39 H39         -4.6378  -1.0069  -4.8539 H              1 <1>                0.0000
     40 H40         -2.1087  -1.6453  -2.2653 H              1 <1>                0.0000
     41 H41         -1.6048  -0.0343  -2.8300 H              1 <1>                0.0000
     42 H42         -2.6615   1.0194  -0.8854 H              1 <1>                0.0000
     43 H43         -3.4551  -1.6677  -0.1245 H              1 <1>                0.0000
     44 H44          2.2165  -2.7911   0.9917 H              1 <1>                0.0000
     45 H45          2.8958  -1.2532   1.5762 H              1 <1>                0.0000
     46 H46          1.4776  -1.3980   3.6052 H              1 <1>                0.0000
     47 H47          0.7984  -2.9359   3.0206 H              1 <1>                0.0000
     48 H48          2.3636   1.4460   0.9828 H              1 <1>                0.0000
     49 H49          1.0639   1.9772   2.0768 H              1 <1>                0.0000
     50 H50          2.1006   0.6024   2.5279 H              1 <1>                0.0000
     51 H51         -1.8593   2.0943   0.1087 H              1 <1>                0.0000
     52 H52         -0.6260   2.4504   1.3418 H              1 <1>                0.0000
     53 H53          1.7274   2.9736   0.6061 H              1 <1>                0.0000
     54 H54          2.9477   3.8994  -4.1100 H              1 <1>                0.0000
     55 H55          1.7199   5.1811  -4.2449 H              1 <1>                0.0000
     56 H56          3.0415   5.3357  -3.0628 H              1 <1>                0.0000
     57 H57         -2.2936   2.0504  -1.6510 H              1 <1>                0.0000
     58 H58         -2.0709   2.6552  -3.2026 H              1 <1>                0.0000
@<TRIPOS>BOND
    1    1    2 1     
    2    1   33 1     
    3    1   34 1     
    4    1   35 1     
    5    2    3 1     
    6    2    4 1     
    7    2   36 1     
    8    3   37 1     
    9    3   38 1     
   10    3   39 1     
   11    4    5 1     
   12    4   40 1     
   13    4   41 1     
   14    5    6 1     
   15    5    7 1     
   16    5   42 1     
   17    6   43 1     
   18    7   23 2     
   19    7    8 1     
   20    8    9 1     
   21    9   10 1     
   22    9   21 2     
   23   10   11 1     
   24   10   44 1     
   25   10   45 1     
   26   11   12 1     
   27   11   46 1     
   28   11   47 1     
   29   12   13 1     
   30   13   14 ar    
   31   13   15 ar    
   32   13   16 1     
   33   16   17 1     
   34   17   18 ar    
   35   17   19 ar    
   36   17   20 ar    
   37   21   22 1     
   38   21   23 1     
   39   22   48 1     
   40   22   49 1     
   41   22   50 1     
   42   23   24 1     
   43   24   25 1     
   44   24   51 1     
   45   24   52 1     
   46   25   31 ar    
   47   25   26 ar    
   48   26   27 ar    
   49   26   53 1     
   50   27   28 ar    
   51   28   29 1     
   52   28   30 ar    
   53   29   54 1     
   54   29   55 1     
   55   29   56 1     
   56   30   31 ar    
   57   31   32 1     
   58   32   57 1     
   59   32   58 1     
@<TRIPOS>SUBSTRUCTURE
      1 ****           1
@<TRIPOS>SET
DONOR_HYDROGENS      STATIC     ATOMS    <user>   **** ""
3 43 57 58
ATOM$RED        STATIC     ATOMS    COLORGROUP SYSTEM
3 43 57 58
