#       Name:                WZ5
#       Creating user name   gbret
#       Creation time:       Fri Sep  9 18:22:45 2016


#       File generated by GOLD software.
#

@<TRIPOS>MOLECULE
WZ5
   117   121     1
SMALL
NO_CHARGES


@<TRIPOS>ATOM
      1 C1           4.8406   4.7660   1.9784 C.3            1 <1>                0.0000
      2 O2           4.8475   3.3371   1.9613 O.3            1 <1>                0.0000
      3 C3           3.5454   2.7492   1.9923 C.3            1 <1>                0.0000
      4 O4           2.8854   2.9869   0.7473 O.3            1 <1>                0.0000
      5 C5           1.5587   2.4602   0.6803 C.3            1 <1>                0.0000
      6 C6           0.9439   2.7975  -0.6795 C.3            1 <1>                0.0000
      7 O7           0.7946   4.2138  -0.7967 O.3            1 <1>                0.0000
      8 C8           0.2257   4.6376  -2.0372 C.3            1 <1>                0.0000
      9 O9          -1.1520   4.2607  -2.0832 O.3            1 <1>                0.0000
     10 C10         -1.8139   4.6160  -3.2988 C.3            1 <1>                0.0000
     11 C11         -3.2671   4.1404  -3.2464 C.3            1 <1>                0.0000
     12 O12         -3.2997   2.7125  -3.2018 O.3            1 <1>                0.0000
     13 C13         -4.6176   2.1625  -3.1506 C.3            1 <1>                0.0000
     14 O14         -5.2673   2.3642  -4.4073 O.3            1 <1>                0.0000
     15 C15         -6.6079   1.8718  -4.4567 C.3            1 <1>                0.0000
     16 C16         -7.2095   2.1667  -5.8322 C.3            1 <1>                0.0000
     17 O17         -7.3192   3.5802  -6.0110 O.3            1 <1>                0.0000
     18 C18         -6.6041   0.3602  -4.2146 C.3            1 <1>                0.0000
     19 O19         -5.8674  -0.2880  -5.2535 O.3            1 <1>                0.0000
     20 C20         -5.9459   0.0692  -2.8624 C.3            1 <1>                0.0000
     21 O21         -5.8717  -1.3436  -2.6610 O.3            1 <1>                0.0000
     22 C22         -4.5338   0.6625  -2.8560 C.3            1 <1>                0.0000
     23 O23         -3.7423   0.0224  -3.8590 O.3            1 <1>                0.0000
     24 C24         -1.7803   6.1369  -3.4707 C.3            1 <1>                0.0000
     25 O25         -2.4906   6.7548  -2.3957 O.3            1 <1>                0.0000
     26 C26         -0.3240   6.6119  -3.4619 C.3            1 <1>                0.0000
     27 O27         -0.2858   8.0378  -3.5481 O.3            1 <1>                0.0000
     28 C28          0.3412   6.1594  -2.1584 C.3            1 <1>                0.0000
     29 O29         -0.3129   6.7778  -1.0486 O.3            1 <1>                0.0000
     30 C30          1.6051   0.9402   0.8568 C.3            1 <1>                0.0000
     31 O31          2.3551   0.3581  -0.2112 O.3            1 <1>                0.0000
     32 C32          2.2762   0.6095   2.1934 C.3            1 <1>                0.0000
     33 O33          2.3901  -0.8081   2.3333 O.3            1 <1>                0.0000
     34 C34          2.3452  -1.2641   3.6868 C.3            1 <1>                0.0000
     35 O35          1.0244  -1.0913   4.2044 O.3            1 <1>                0.0000
     36 C36          0.8744  -1.4941   5.5672 C.3            1 <1>                0.0000
     37 C37         -0.5647  -1.2385   6.0194 C.3            1 <1>                0.0000
     38 O38         -0.8246   0.1666   6.0098 O.3            1 <1>                0.0000
     39 C39          1.1923  -2.9862   5.6948 C.3            1 <1>                0.0000
     40 O40          0.2614  -3.7410   4.9165 O.3            1 <1>                0.0000
     41 C41          2.6134  -3.2430   5.1840 C.3            1 <1>                0.0000
     42 O42          2.8924  -4.6437   5.2308 O.3            1 <1>                0.0000
     43 C43          2.7221  -2.7469   3.7388 C.3            1 <1>                0.0000
     44 O44          1.8318  -3.4954   2.9087 O.3            1 <1>                0.0000
     45 C45          2.2770  -3.6371   1.5583 C.3            1 <1>                0.0000
     46 O46          3.4091  -4.5083   1.5187 O.3            1 <1>                0.0000
     47 C47          3.9527  -4.6995   0.2110 C.3            1 <1>                0.0000
     48 C48          5.1703  -5.6222   0.2945 C.3            1 <1>                0.0000
     49 O49          6.2041  -4.9800   1.0433 O.3            1 <1>                0.0000
     50 C50          2.8925  -5.3338  -0.6931 C.3            1 <1>                0.0000
     51 O51          2.5358  -6.6196  -0.1815 O.3            1 <1>                0.0000
     52 C52          1.6536  -4.4334  -0.7235 C.3            1 <1>                0.0000
     53 O53          0.6313  -5.0533  -1.5062 O.3            1 <1>                0.0000
     54 C54          1.1495  -4.2287   0.7083 C.3            1 <1>                0.0000
     55 N55          0.7366  -5.5168   1.2709 N.am           1 <1>                0.0000
     56 C56         -0.5280  -5.9514   1.1024 C.2            1 <1>                0.0000
     57 C57         -0.9527  -7.2765   1.6811 C.3            1 <1>                0.0000
     58 O58         -1.3241  -5.2761   0.4851 O.2            1 <1>                0.0000
     59 C59          3.6716   1.2408   2.2215 C.3            1 <1>                0.0000
     60 O60          4.4764   0.6667   1.1896 O.3            1 <1>                0.0000
     61 H61          5.8661   5.1346   1.9529 H              1 <1>                0.0000
     62 H62          4.2993   5.1372   1.1082 H              1 <1>                0.0000
     63 H63          4.3512   5.1161   2.8873 H              1 <1>                0.0000
     64 H64          2.9655   3.1926   2.8018 H              1 <1>                0.0000
     65 H65          0.9526   2.9000   1.4724 H              1 <1>                0.0000
     66 H66          1.5963   2.4339  -1.4735 H              1 <1>                0.0000
     67 H67         -0.0327   2.3209  -0.7650 H              1 <1>                0.0000
     68 H68          0.7596   4.1657  -2.8620 H              1 <1>                0.0000
     69 H69         -1.3069   4.1437  -4.1402 H              1 <1>                0.0000
     70 H70         -3.7492   4.5429  -2.3554 H              1 <1>                0.0000
     71 H71         -3.7955   4.4884  -4.1339 H              1 <1>                0.0000
     72 H72         -5.1872   2.6563  -2.3633 H              1 <1>                0.0000
     73 H73         -7.2038   2.3619  -3.6867 H              1 <1>                0.0000
     74 H74         -6.5652   1.7514  -6.6072 H              1 <1>                0.0000
     75 H75         -8.1986   1.7139  -5.9009 H              1 <1>                0.0000
     76 H76         -7.6938   3.8410  -6.8635 H              1 <1>                0.0000
     77 H77         -7.6291  -0.0105  -4.2092 H              1 <1>                0.0000
     78 H78         -5.8238  -1.2498  -5.1636 H              1 <1>                0.0000
     79 H79         -6.5362   0.5206  -2.0649 H              1 <1>                0.0000
     80 H80         -5.4648  -1.6005  -1.8223 H              1 <1>                0.0000
     81 H81         -4.0783   0.5083  -1.8779 H              1 <1>                0.0000
     82 H82         -2.8339   0.3496  -3.9113 H              1 <1>                0.0000
     83 H83         -2.2467   6.4068  -4.4182 H              1 <1>                0.0000
     84 H84         -2.5099   7.7205  -2.4406 H              1 <1>                0.0000
     85 H85          0.2052   6.1809  -4.3117 H              1 <1>                0.0000
     86 H86          0.6076   8.4080  -3.5475 H              1 <1>                0.0000
     87 H87          1.3930   6.4452  -2.1679 H              1 <1>                0.0000
     88 H88          0.0574   6.5356  -0.1889 H              1 <1>                0.0000
     89 H89          0.5906   0.5415   0.8490 H              1 <1>                0.0000
     90 H90          1.9891   0.5319  -1.0892 H              1 <1>                0.0000
     91 H91          1.6770   1.0096   3.0112 H              1 <1>                0.0000
     92 H92          3.0494  -0.6887   4.2878 H              1 <1>                0.0000
     93 H93          1.5591  -0.9216   6.1929 H              1 <1>                0.0000
     94 H94         -1.2536  -1.7401   5.3397 H              1 <1>                0.0000
     95 H95         -0.7029  -1.6267   7.0285 H              1 <1>                0.0000
     96 H96         -1.7207   0.4028   6.2862 H              1 <1>                0.0000
     97 H97          1.1203  -3.2859   6.7403 H              1 <1>                0.0000
     98 H98         -0.6608  -3.6225   5.1823 H              1 <1>                0.0000
     99 H99          3.3279  -2.7078   5.8094 H              1 <1>                0.0000
    100 H100         2.8347  -5.0268   6.1168 H              1 <1>                0.0000
    101 H101         3.7453  -2.8753   3.3857 H              1 <1>                0.0000
    102 H102         2.5560  -2.6602   1.1631 H              1 <1>                0.0000
    103 H103         4.2538  -3.7367  -0.2018 H              1 <1>                0.0000
    104 H104         4.8882  -6.5522   0.7880 H              1 <1>                0.0000
    105 H105         5.5312  -5.8394  -0.7109 H              1 <1>                0.0000
    106 H106         7.0084  -5.5087   1.1369 H              1 <1>                0.0000
    107 H107         3.2909  -5.4410  -1.7020 H              1 <1>                0.0000
    108 H108         3.2749  -7.2411  -0.1297 H              1 <1>                0.0000
    109 H109         1.9140  -3.4697  -1.1612 H              1 <1>                0.0000
    110 H110         0.8851  -5.2193  -2.4244 H              1 <1>                0.0000
    111 H111         0.3011  -3.5444   0.7015 H              1 <1>                0.0000
    112 H112         1.3733  -6.0569   1.7646 H              1 <1>                0.0000
    113 H113        -0.1090  -7.7349   2.1968 H              1 <1>                0.0000
    114 H114        -1.7684  -7.1199   2.3869 H              1 <1>                0.0000
    115 H115        -1.2880  -7.9329   0.8781 H              1 <1>                0.0000
    116 H116         4.1350   1.0572   3.1908 H              1 <1>                0.0000
    117 H117         5.3753   1.0208   1.1490 H              1 <1>                0.0000
@<TRIPOS>BOND
    1    1    2 1     
    2    1   61 1     
    3    1   62 1     
    4    1   63 1     
    5    2    3 1     
    6    3   59 1     
    7    3    4 1     
    8    3   64 1     
    9    4    5 1     
   10    5    6 1     
   11    5   30 1     
   12    5   65 1     
   13    6    7 1     
   14    6   66 1     
   15    6   67 1     
   16    7    8 1     
   17    8   28 1     
   18    8    9 1     
   19    8   68 1     
   20    9   10 1     
   21   10   11 1     
   22   10   24 1     
   23   10   69 1     
   24   11   12 1     
   25   11   70 1     
   26   11   71 1     
   27   12   13 1     
   28   13   22 1     
   29   13   14 1     
   30   13   72 1     
   31   14   15 1     
   32   15   16 1     
   33   15   18 1     
   34   15   73 1     
   35   16   17 1     
   36   16   74 1     
   37   16   75 1     
   38   17   76 1     
   39   18   19 1     
   40   18   20 1     
   41   18   77 1     
   42   19   78 1     
   43   20   21 1     
   44   20   22 1     
   45   20   79 1     
   46   21   80 1     
   47   22   23 1     
   48   22   81 1     
   49   23   82 1     
   50   24   25 1     
   51   24   26 1     
   52   24   83 1     
   53   25   84 1     
   54   26   27 1     
   55   26   28 1     
   56   26   85 1     
   57   27   86 1     
   58   28   29 1     
   59   28   87 1     
   60   29   88 1     
   61   30   31 1     
   62   30   32 1     
   63   30   89 1     
   64   31   90 1     
   65   32   33 1     
   66   32   59 1     
   67   32   91 1     
   68   33   34 1     
   69   34   43 1     
   70   34   35 1     
   71   34   92 1     
   72   35   36 1     
   73   36   37 1     
   74   36   39 1     
   75   36   93 1     
   76   37   38 1     
   77   37   94 1     
   78   37   95 1     
   79   38   96 1     
   80   39   40 1     
   81   39   41 1     
   82   39   97 1     
   83   40   98 1     
   84   41   42 1     
   85   41   43 1     
   86   41   99 1     
   87   42  100 1     
   88   43   44 1     
   89   43  101 1     
   90   44   45 1     
   91   45   54 1     
   92   45   46 1     
   93   45  102 1     
   94   46   47 1     
   95   47   48 1     
   96   47   50 1     
   97   47  103 1     
   98   48   49 1     
   99   48  104 1     
  100   48  105 1     
  101   49  106 1     
  102   50   51 1     
  103   50   52 1     
  104   50  107 1     
  105   51  108 1     
  106   52   53 1     
  107   52   54 1     
  108   52  109 1     
  109   53  110 1     
  110   54   55 1     
  111   54  111 1     
  112   55   56 am    
  113   55  112 1     
  114   56   57 1     
  115   56   58 2     
  116   57  113 1     
  117   57  114 1     
  118   57  115 1     
  119   59   60 1     
  120   59  116 1     
  121   60  117 1     
@<TRIPOS>SUBSTRUCTURE
      1 ****           1
@<TRIPOS>SET
DONOR_HYDROGENS      STATIC     ATOMS    <user>   **** ""
16 76 78 80 82 84 86 88 90 96 98 100 106 108 110 112 117
ATOM$RED        STATIC     ATOMS    COLORGROUP SYSTEM
16 76 78 80 82 84 86 88 90 96 98 100 106 108 110 112 117
