#       Name:                X05
#       Creating user name   gbret
#       Creation time:       Fri Sep  9 18:23:24 2016


#       File generated by GOLD software.
#

@<TRIPOS>MOLECULE
X05
    30    31     1
SMALL
NO_CHARGES


@<TRIPOS>ATOM
      1 N1           1.7933   0.0579  -2.7859 N.4            1 <1>                0.0000
      2 H2           1.8070  -0.9510  -2.7915 H              1 <1>                0.0000
      3 H3           2.7399   0.4072  -2.7931 H              1 <1>                0.0000
      4 H4           1.3053   0.3922  -3.6034 H              1 <1>                0.0000
      5 C5           1.1057   0.5317  -1.5773 C.3            1 <1>                0.0000
      6 C6          -0.3433   0.0209  -1.5860 C.3            1 <1>                0.0000
      7 N7          -0.9767   0.4547  -0.3496 N.3            1 <1>                0.0000
      8 C8          -2.4070   0.1846  -0.1995 C.3            1 <1>                0.0000
      9 C9          -2.6579   0.0529   1.3223 C.3            1 <1>                0.0000
     10 C10         -1.2530   0.1761   1.9733 C.3            1 <1>                0.0000
     11 O11         -1.1133  -0.7392   3.0618 O.3            1 <1>                0.0000
     12 C12         -0.3232  -0.2094   0.8088 C.3            1 <1>                0.0000
     13 C13          1.0772   0.3770   0.9376 C.3            1 <1>                0.0000
     14 O14          1.7366  -0.1873   2.0729 O.3            1 <1>                0.0000
     15 C15          1.8489   0.0226  -0.3428 C.3            1 <1>                0.0000
     16 O16          1.9903  -1.3967  -0.4300 O.3            1 <1>                0.0000
     17 H17          1.1018   1.6216  -1.5702 H              1 <1>                0.0000
     18 H18         -0.8766   0.4385  -2.4400 H              1 <1>                0.0000
     19 H19         -0.3504  -1.0676  -1.6420 H              1 <1>                0.0000
     20 H20         -2.9899   1.0110  -0.6061 H              1 <1>                0.0000
     21 H21         -2.6688  -0.7449  -0.7051 H              1 <1>                0.0000
     22 H22         -3.3082   0.8556   1.6699 H              1 <1>                0.0000
     23 H23         -3.0976  -0.9179   1.5512 H              1 <1>                0.0000
     24 H24         -1.0642   1.1985   2.3005 H              1 <1>                0.0000
     25 H25         -1.7410  -0.5919   3.7826 H              1 <1>                0.0000
     26 H26         -0.2919  -1.2907   0.6752 H              1 <1>                0.0000
     27 H27          1.0162   1.4599   1.0460 H              1 <1>                0.0000
     28 H28          2.6342   0.1446   2.2116 H              1 <1>                0.0000
     29 H29          2.8376   0.4799  -0.3046 H              1 <1>                0.0000
     30 H30          2.4688  -1.7906   0.3123 H              1 <1>                0.0000
@<TRIPOS>BOND
    1    1    2 1     
    2    1    3 1     
    3    1    4 1     
    4    1    5 1     
    5    5   15 1     
    6    5    6 1     
    7    5   17 1     
    8    6    7 1     
    9    6   18 1     
   10    6   19 1     
   11    7   12 1     
   12    7    8 1     
   13    8    9 1     
   14    8   20 1     
   15    8   21 1     
   16    9   10 1     
   17    9   22 1     
   18    9   23 1     
   19   10   11 1     
   20   10   12 1     
   21   10   24 1     
   22   11   25 1     
   23   12   13 1     
   24   12   26 1     
   25   13   14 1     
   26   13   15 1     
   27   13   27 1     
   28   14   28 1     
   29   15   16 1     
   30   15   29 1     
   31   16   30 1     
@<TRIPOS>SUBSTRUCTURE
      1 ****           1
@<TRIPOS>SET
DONOR_HYDROGENS      STATIC     ATOMS    <user>   **** ""
6 2 3 4 25 28 30
ATOM$RED        STATIC     ATOMS    COLORGROUP SYSTEM
6 2 3 4 25 28 30
