#       Name:                X23
#       Creating user name   gbret
#       Creation time:       Fri Sep  9 18:25:40 2016


#       File generated by GOLD software.
#

@<TRIPOS>MOLECULE
X23
    75    78     1
SMALL
NO_CHARGES


@<TRIPOS>ATOM
      1 C1           0.8353   6.2480   4.1119 C.3            1 <1>                0.0000
      2 C2           0.8730   4.7206   4.0314 C.3            1 <1>                0.0000
      3 C3           0.7654   4.2842   2.5689 C.3            1 <1>                0.0000
      4 N4           1.9516   4.7415   1.8329 N.4            1 <1>                0.0000
      5 H5           1.8806   4.4538   0.8684 H              1 <1>                0.0000
      6 H6           2.0095   5.7478   1.8802 H              1 <1>                0.0000
      7 H7           2.7793   4.3372   2.2444 H              1 <1>                0.0000
      8 C8           0.6788   2.7814   2.4981 C.2            1 <1>                0.0000
      9 O9           1.6652   2.1291   2.2288 O.2            1 <1>                0.0000
     10 N10         -0.4948   2.1621   2.7342 N.am           1 <1>                0.0000
     11 C11         -0.5789   0.7011   2.6654 C.3            1 <1>                0.0000
     12 C12         -2.0290   0.2677   2.8943 C.3            1 <1>                0.0000
     13 C13         -2.2629   0.0346   4.3883 C.3            1 <1>                0.0000
     14 N14         -3.6172  -0.4955   4.5950 N.4            1 <1>                0.0000
     15 H15         -3.7714  -0.6492   5.5803 H              1 <1>                0.0000
     16 H16         -4.2944   0.1671   4.2480 H              1 <1>                0.0000
     17 H17         -3.7160  -1.3685   4.0989 H              1 <1>                0.0000
     18 C18         -2.9711   1.3696   2.3944 C.3            1 <1>                0.0000
     19 C19         -2.3471   2.0684   1.1873 C.3            1 <1>                0.0000
     20 C20         -2.1246   1.0387   0.0838 C.3            1 <1>                0.0000
     21 C21         -2.1655   1.7284  -1.2996 C.3            1 <1>                0.0000
     22 C22         -1.3496   0.7263  -2.1607 C.3            1 <1>                0.0000
     23 C23         -0.2737   0.2189  -1.1771 C.3            1 <1>                0.0000
     24 N24         -0.7702   0.4741   0.1857 N.am           1 <1>                0.0000
     25 C25         -0.0957   0.2397   1.3191 C.2            1 <1>                0.0000
     26 O26          0.9502  -0.3711   1.2561 O.2            1 <1>                0.0000
     27 C27         -0.0555  -1.2591  -1.3744 C.2            1 <1>                0.0000
     28 O28         -0.2773  -2.0315  -0.4660 O.2            1 <1>                0.0000
     29 N29          0.3863  -1.7227  -2.5603 N.am           1 <1>                0.0000
     30 C30          0.5985  -3.1595  -2.7521 C.3            1 <1>                0.0000
     31 C31          0.4838  -3.4931  -4.2172 C.ar           1 <1>                0.0000
     32 C32          1.0251  -2.6436  -5.1639 C.ar           1 <1>                0.0000
     33 C33          0.9199  -2.9496  -6.5079 C.ar           1 <1>                0.0000
     34 C34          0.2737  -4.1052  -6.9051 C.ar           1 <1>                0.0000
     35 C35         -0.2668  -4.9551  -5.9584 C.ar           1 <1>                0.0000
     36 C36         -0.1579  -4.6513  -4.6142 C.ar           1 <1>                0.0000
     37 C37          1.9716  -3.5349  -2.2574 C.ar           1 <1>                0.0000
     38 C38          3.0442  -2.6951  -2.4918 C.ar           1 <1>                0.0000
     39 C39          4.3038  -3.0394  -2.0381 C.ar           1 <1>                0.0000
     40 C40          4.4906  -4.2235  -1.3496 C.ar           1 <1>                0.0000
     41 C41          3.4178  -5.0629  -1.1144 C.ar           1 <1>                0.0000
     42 C42          2.1574  -4.7165  -1.5644 C.ar           1 <1>                0.0000
     43 H43          1.6702   6.6623   3.5468 H              1 <1>                0.0000
     44 H44         -0.1030   6.6109   3.6926 H              1 <1>                0.0000
     45 H45          0.9120   6.5589   5.1538 H              1 <1>                0.0000
     46 H46          1.8113   4.3577   4.4507 H              1 <1>                0.0000
     47 H47          0.0381   4.3063   4.5965 H              1 <1>                0.0000
     48 H48         -0.1289   4.7210   2.1242 H              1 <1>                0.0000
     49 H49         -1.2837   2.6838   2.9496 H              1 <1>                0.0000
     50 H50          0.0519   0.2679   3.4416 H              1 <1>                0.0000
     51 H51         -2.2239  -0.6546   2.3471 H              1 <1>                0.0000
     52 H52         -1.5313  -0.6812   4.7632 H              1 <1>                0.0000
     53 H53         -2.1561   0.9777   4.9242 H              1 <1>                0.0000
     54 H54         -3.9248   0.9281   2.1053 H              1 <1>                0.0000
     55 H55         -3.1343   2.0963   3.1902 H              1 <1>                0.0000
     56 H56         -3.0190   2.8484   0.8291 H              1 <1>                0.0000
     57 H57         -1.3922   2.5092   1.4737 H              1 <1>                0.0000
     58 H58         -2.8714   0.2474   0.1479 H              1 <1>                0.0000
     59 H59         -3.1891   1.8156  -1.6640 H              1 <1>                0.0000
     60 H60         -1.6789   2.7032  -1.2661 H              1 <1>                0.0000
     61 H61         -1.9814  -0.0952  -2.4984 H              1 <1>                0.0000
     62 H62         -0.8885   1.2330  -3.0085 H              1 <1>                0.0000
     63 H63          0.6597   0.7580  -1.3384 H              1 <1>                0.0000
     64 H64          0.5637  -1.1050  -3.2868 H              1 <1>                0.0000
     65 H65         -0.1538  -3.7157  -2.1928 H              1 <1>                0.0000
     66 H66          1.5300  -1.7407  -4.8536 H              1 <1>                0.0000
     67 H67          1.3423  -2.2855  -7.2475 H              1 <1>                0.0000
     68 H68          0.1909  -4.3439  -7.9551 H              1 <1>                0.0000
     69 H69         -0.7720  -5.8579  -6.2687 H              1 <1>                0.0000
     70 H70         -0.5802  -5.3153  -3.8745 H              1 <1>                0.0000
     71 H71          2.8983  -1.7700  -3.0297 H              1 <1>                0.0000
     72 H72          5.1419  -2.3836  -2.2218 H              1 <1>                0.0000
     73 H73          5.4747  -4.4929  -0.9957 H              1 <1>                0.0000
     74 H74          3.5638  -5.9882  -0.5768 H              1 <1>                0.0000
     75 H75          1.3193  -5.3724  -1.3807 H              1 <1>                0.0000
@<TRIPOS>BOND
    1    1    2 1     
    2    1   43 1     
    3    1   44 1     
    4    1   45 1     
    5    2    3 1     
    6    2   46 1     
    7    2   47 1     
    8    3    4 1     
    9    3    8 1     
   10    3   48 1     
   11    4    5 1     
   12    4    6 1     
   13    4    7 1     
   14    8    9 2     
   15    8   10 am    
   16   10   11 1     
   17   10   49 1     
   18   11   25 1     
   19   11   12 1     
   20   11   50 1     
   21   12   13 1     
   22   12   18 1     
   23   12   51 1     
   24   13   14 1     
   25   13   52 1     
   26   13   53 1     
   27   14   15 1     
   28   14   16 1     
   29   14   17 1     
   30   18   19 1     
   31   18   54 1     
   32   18   55 1     
   33   19   20 1     
   34   19   56 1     
   35   19   57 1     
   36   20   24 1     
   37   20   21 1     
   38   20   58 1     
   39   21   22 1     
   40   21   59 1     
   41   21   60 1     
   42   22   23 1     
   43   22   61 1     
   44   22   62 1     
   45   23   24 1     
   46   23   27 1     
   47   23   63 1     
   48   24   25 am    
   49   25   26 2     
   50   27   28 2     
   51   27   29 am    
   52   29   30 1     
   53   29   64 1     
   54   30   31 1     
   55   30   37 1     
   56   30   65 1     
   57   31   36 ar    
   58   31   32 ar    
   59   32   33 ar    
   60   32   66 1     
   61   33   34 ar    
   62   33   67 1     
   63   34   35 ar    
   64   34   68 1     
   65   35   36 ar    
   66   35   69 1     
   67   36   70 1     
   68   37   42 ar    
   69   37   38 ar    
   70   38   39 ar    
   71   38   71 1     
   72   39   40 ar    
   73   39   72 1     
   74   40   41 ar    
   75   40   73 1     
   76   41   42 ar    
   77   41   74 1     
   78   42   75 1     
@<TRIPOS>SUBSTRUCTURE
      1 ****           1
@<TRIPOS>SET
DONOR_HYDROGENS      STATIC     ATOMS    <user>   **** ""
8 5 6 7 49 15 16 17 64
ATOM$RED        STATIC     ATOMS    COLORGROUP SYSTEM
8 5 6 7 49 15 16 17 64
