#       Name:                X48
#       Creating user name   gbret
#       Creation time:       Fri Sep  9 18:28:08 2016


#       File generated by GOLD software.
#

@<TRIPOS>MOLECULE
X48
    23    24     1
SMALL
NO_CHARGES


@<TRIPOS>ATOM
      1 O1          -0.2507   4.6450   0.0284 O.3            1 <1>                0.0000
      2 C2          -0.2322   3.2856   0.0209 C.2            1 <1>                0.0000
      3 C3          -1.3828   2.6013   0.0226 C.2            1 <1>                0.0000
      4 C4          -1.3002   1.0893   0.0135 C.3            1 <1>                0.0000
      5 C5           0.0746   0.4607   0.0031 C.2            1 <1>                0.0000
      6 N6           1.1324   1.2288   0.0023 N.2            1 <1>                0.0000
      7 C7           1.0530   2.5678   0.0048 C.2            1 <1>                0.0000
      8 O8           2.0842   3.2148   0.0039 O.2            1 <1>                0.0000
      9 C9           0.2206  -1.0010  -0.0055 C.ar           1 <1>                0.0000
     10 C10         -0.9136  -1.8217  -0.0101 C.ar           1 <1>                0.0000
     11 C11         -0.7676  -3.1924  -0.0187 C.ar           1 <1>                0.0000
     12 C12          0.4960  -3.7578  -0.0228 C.ar           1 <1>                0.0000
     13 C13          1.6229  -2.9536  -0.0179 C.ar           1 <1>                0.0000
     14 C14          1.4948  -1.5811  -0.0152 C.ar           1 <1>                0.0000
     15 H15          0.6273   5.0503   0.0222 H              1 <1>                0.0000
     16 H16         -2.3358   3.1094   0.0306 H              1 <1>                0.0000
     17 H17         -1.8281   0.7215   0.8934 H              1 <1>                0.0000
     18 H18         -1.8368   0.7316  -0.8653 H              1 <1>                0.0000
     19 H19         -1.9001  -1.3822  -0.0065 H              1 <1>                0.0000
     20 H20         -1.6415  -3.8270  -0.0218 H              1 <1>                0.0000
     21 H21          0.6034  -4.8324  -0.0296 H              1 <1>                0.0000
     22 H22          2.6050  -3.4027  -0.0205 H              1 <1>                0.0000
     23 H23          2.3749  -0.9551  -0.0113 H              1 <1>                0.0000
@<TRIPOS>BOND
    1    1    2 1     
    2    1   15 1     
    3    2    7 1     
    4    2    3 2     
    5    3    4 1     
    6    3   16 1     
    7    4    5 1     
    8    4   17 1     
    9    4   18 1     
   10    5    6 2     
   11    5    9 1     
   12    6    7 1     
   13    7    8 2     
   14    9   14 ar    
   15    9   10 ar    
   16   10   11 ar    
   17   10   19 1     
   18   11   12 ar    
   19   11   20 1     
   20   12   13 ar    
   21   12   21 1     
   22   13   14 ar    
   23   13   22 1     
   24   14   23 1     
@<TRIPOS>SUBSTRUCTURE
      1 ****           1
@<TRIPOS>SET
DONOR_HYDROGENS      STATIC     ATOMS    <user>   **** ""
1 15
ATOM$RED        STATIC     ATOMS    COLORGROUP SYSTEM
1 15
