#       Name:                X4A
#       Creating user name   gbret
#       Creation time:       Fri Sep  9 18:28:12 2016


#       File generated by GOLD software.
#

@<TRIPOS>MOLECULE
X4A
    23    23     1
SMALL
NO_CHARGES


@<TRIPOS>ATOM
      1 O1          -0.1527   2.9536   1.7438 O.3            1 <1>                0.0000
      2 C2          -0.1333   1.5247   1.7359 C.3            1 <1>                0.0000
      3 C3          -1.5726   0.9678   1.6667 C.3            1 <1>                0.0000
      4 C4          -1.4506  -0.2757   0.7577 C.3            1 <1>                0.0000
      5 O5          -2.2532  -0.1199  -0.4143 O.3            1 <1>                0.0000
      6 C6           0.0479  -0.3229   0.3853 C.3            1 <1>                0.0000
      7 O7           0.7544  -1.1903   1.2744 O.3            1 <1>                0.0000
      8 C8           0.2227  -0.7880  -1.0617 C.3            1 <1>                0.0000
      9 O9           1.6140  -0.8247  -1.3855 O.3            1 <1>                0.0000
     10 P10          2.1666  -1.2703  -2.8306 P.3            1 <1>                0.0000
     11 O11          1.6969  -0.2372  -3.9106 O.co2          1 <1>                0.0000
     12 O12          3.7322  -1.3175  -2.7992 O.co2          1 <1>                0.0000
     13 O13          1.6084  -2.6898  -3.1881 O.co2          1 <1>                0.0000
     14 O14          0.5090   1.0372   0.5378 O.3            1 <1>                0.0000
     15 H15          0.7252   3.3589   1.7376 H              1 <1>                0.0000
     16 H16          0.3789   1.1480   2.6212 H              1 <1>                0.0000
     17 H17         -1.9198   0.6824   2.6597 H              1 <1>                0.0000
     18 H18         -2.2450   1.7014   1.2221 H              1 <1>                0.0000
     19 H19         -1.7399  -1.1755   1.3007 H              1 <1>                0.0000
     20 H20         -3.1984  -0.0244  -0.2339 H              1 <1>                0.0000
     21 H21          1.7007  -1.2588   1.0879 H              1 <1>                0.0000
     22 H22         -0.2036  -1.7846  -1.1771 H              1 <1>                0.0000
     23 H23         -0.2878  -0.0949  -1.7304 H              1 <1>                0.0000
@<TRIPOS>BOND
    1    1    2 1     
    2    1   15 1     
    3    2   14 1     
    4    2    3 1     
    5    2   16 1     
    6    3    4 1     
    7    3   17 1     
    8    3   18 1     
    9    4    5 1     
   10    4    6 1     
   11    4   19 1     
   12    5   20 1     
   13    6    7 1     
   14    6    8 1     
   15    6   14 1     
   16    7   21 1     
   17    8    9 1     
   18    8   22 1     
   19    8   23 1     
   20    9   10 1     
   21   10   11 ar    
   22   10   12 ar    
   23   10   13 ar    
@<TRIPOS>SUBSTRUCTURE
      1 ****           1
@<TRIPOS>SET
DONOR_HYDROGENS      STATIC     ATOMS    <user>   **** ""
3 15 20 21
ATOM$RED        STATIC     ATOMS    COLORGROUP SYSTEM
3 15 20 21
