#       Name:                XG1
#       Creating user name   gbret
#       Creation time:       Fri Sep  9 18:37:30 2016


#       File generated by GOLD software.
#

@<TRIPOS>MOLECULE
XG1
    34    36     1
SMALL
NO_CHARGES


@<TRIPOS>ATOM
      1 C1          -1.7841   4.0345  -3.4976 C.3            1 <1>                0.0000
      2 C2          -1.7633   2.5046  -3.5060 C.3            1 <1>                0.0000
      3 C3          -1.0233   1.9978  -2.2665 C.3            1 <1>                0.0000
      4 C4          -1.0026   0.4680  -2.2749 C.3            1 <1>                0.0000
      5 N5          -0.2940  -0.0173  -1.0880 N.pl3          1 <1>                0.0000
      6 C6          -0.8139  -0.8887  -0.2014 C.2            1 <1>                0.0000
      7 C7           0.1404  -1.0964   0.7571 C.ar           1 <1>                0.0000
      8 C8           1.2778  -0.2558   0.3422 C.ar           1 <1>                0.0000
      9 N9           0.9019   0.3324  -0.7688 N.2            1 <1>                0.0000
     10 C10          2.4740  -0.2676   1.1872 C.ar           1 <1>                0.0000
     11 N11          3.5649   0.5044   0.8383 N.pl3          1 <1>                0.0000
     12 N12          2.5196  -1.0021   2.2701 N.ar           1 <1>                0.0000
     13 C13          1.5087  -1.7914   2.6993 C.ar           1 <1>                0.0000
     14 C14          1.6606  -2.5395   3.8756 C.ar           1 <1>                0.0000
     15 C15          0.6383  -3.3444   4.3184 C.ar           1 <1>                0.0000
     16 C16         -0.5538  -3.4290   3.6124 C.ar           1 <1>                0.0000
     17 C17         -0.7291  -2.7046   2.4540 C.ar           1 <1>                0.0000
     18 C18          0.2931  -1.8816   1.9874 C.ar           1 <1>                0.0000
     19 H19         -0.7615   4.4118  -3.5053 H              1 <1>                0.0000
     20 H20         -2.3113   4.3955  -4.3806 H              1 <1>                0.0000
     21 H21         -2.2943   4.3860  -2.6008 H              1 <1>                0.0000
     22 H22         -2.7859   2.1273  -3.4982 H              1 <1>                0.0000
     23 H23         -1.2531   2.1531  -4.4028 H              1 <1>                0.0000
     24 H24         -0.0007   2.3751  -2.2742 H              1 <1>                0.0000
     25 H25         -1.5335   2.3493  -1.3697 H              1 <1>                0.0000
     26 H26         -2.0252   0.0907  -2.2671 H              1 <1>                0.0000
     27 H27         -0.4924   0.1164  -3.1717 H              1 <1>                0.0000
     28 H28         -1.7958  -1.3369  -0.2397 H              1 <1>                0.0000
     29 H29          3.5363   1.0506   0.0373 H              1 <1>                0.0000
     30 H30          4.3597   0.5003   1.3944 H              1 <1>                0.0000
     31 H31          2.5830  -2.4834   4.4345 H              1 <1>                0.0000
     32 H32          0.7640  -3.9174   5.2251 H              1 <1>                0.0000
     33 H33         -1.3478  -4.0662   3.9729 H              1 <1>                0.0000
     34 H34         -1.6582  -2.7748   1.9079 H              1 <1>                0.0000
@<TRIPOS>BOND
    1    1    2 1     
    2    1   19 1     
    3    1   20 1     
    4    1   21 1     
    5    2    3 1     
    6    2   22 1     
    7    2   23 1     
    8    3    4 1     
    9    3   24 1     
   10    3   25 1     
   11    4    5 1     
   12    4   26 1     
   13    4   27 1     
   14    5    9 1     
   15    5    6 1     
   16    6    7 2     
   17    6   28 1     
   18    7   18 ar    
   19    7    8 ar    
   20    8    9 2     
   21    8   10 ar    
   22   10   11 1     
   23   10   12 ar    
   24   11   29 1     
   25   11   30 1     
   26   12   13 ar    
   27   13   18 ar    
   28   13   14 ar    
   29   14   15 ar    
   30   14   31 1     
   31   15   16 ar    
   32   15   32 1     
   33   16   17 ar    
   34   16   33 1     
   35   17   18 ar    
   36   17   34 1     
@<TRIPOS>SUBSTRUCTURE
      1 ****           1
@<TRIPOS>SET
DONOR_HYDROGENS      STATIC     ATOMS    <user>   **** ""
2 29 30
ATOM$RED        STATIC     ATOMS    COLORGROUP SYSTEM
2 29 30
