#       Name:                XQG
#       Creating user name   gbret
#       Creation time:       Fri Sep  9 18:45:00 2016


#       File generated by GOLD software.
#

@<TRIPOS>MOLECULE
XQG
    17    18     1
SMALL
NO_CHARGES


@<TRIPOS>ATOM
      1 C1          -1.1397   2.4790   1.9795 C.3            1 <1>                0.0000
      2 S2          -1.1151   0.6692   1.9695 S.3            1 <1>                0.0000
      3 C3          -0.2578   0.3832   0.4570 C.ar           1 <1>                0.0000
      4 N4           0.1604   1.4001  -0.2911 N.ar           1 <1>                0.0000
      5 C5           0.8034   1.1950  -1.4257 C.ar           1 <1>                0.0000
      6 N6           1.0668  -0.0121  -1.8807 N.ar           1 <1>                0.0000
      7 C7           0.6878  -1.0900  -1.2015 C.ar           1 <1>                0.0000
      8 N8           0.8013  -2.4440  -1.3912 N.pl3          1 <1>                0.0000
      9 H9           1.2289  -2.8845  -2.1423 H              1 <1>                0.0000
     10 C10          0.2037  -3.0568  -0.3302 C.2            1 <1>                0.0000
     11 N11         -0.2657  -2.1639   0.4921 N.2            1 <1>                0.0000
     12 C12          0.0052  -0.9253   0.0155 C.ar           1 <1>                0.0000
     13 H13         -0.1171   2.8563   1.9717 H              1 <1>                0.0000
     14 H14         -1.6669   2.8401   1.0964 H              1 <1>                0.0000
     15 H15         -1.6499   2.8306   2.8763 H              1 <1>                0.0000
     16 H16          1.1251   2.0494  -2.0026 H              1 <1>                0.0000
     17 H17          0.1303  -4.1255  -0.1926 H              1 <1>                0.0000
@<TRIPOS>BOND
    1    1    2 1     
    2    1   13 1     
    3    1   14 1     
    4    1   15 1     
    5    2    3 1     
    6    3   12 ar    
    7    3    4 ar    
    8    4    5 ar    
    9    5    6 ar    
   10    5   16 1     
   11    6    7 ar    
   12    7   12 ar    
   13    7    8 1     
   14    8    9 1     
   15    8   10 1     
   16   10   11 2     
   17   10   17 1     
   18   11   12 1     
@<TRIPOS>SUBSTRUCTURE
      1 ****           1
@<TRIPOS>SET
DONOR_HYDROGENS      STATIC     ATOMS    <user>   **** ""
1 9
ATOM$RED        STATIC     ATOMS    COLORGROUP SYSTEM
1 9
