#       Name:                XYM
#       Creating user name   gbret
#       Creation time:       Fri Sep  9 18:49:57 2016


#       File generated by GOLD software.
#

@<TRIPOS>MOLECULE
XYM
    15    14     1
SMALL
NO_CHARGES


@<TRIPOS>ATOM
      1 O1           1.8129   1.9347  -0.0069 O.3            1 <1>                0.0000
      2 C2           1.8314   0.5714  -0.0144 C.2            1 <1>                0.0000
      3 C3           0.6667  -0.1223  -0.0070 C.2            1 <1>                0.0000
      4 S4          -0.8709   0.7378   0.0123 S.3            1 <1>                0.0000
      5 C5          -2.0154  -0.6644   0.0157 C.3            1 <1>                0.0000
      6 C6          -3.4337  -0.1552   0.0320 C.2            1 <1>                0.0000
      7 O7          -3.6506   1.0446   0.0405 O.co2          1 <1>                0.0000
      8 O8          -4.3642  -0.9430   0.0366 O.co2          1 <1>                0.0000
      9 C9           3.0606  -0.1162  -0.0298 C.2            1 <1>                0.0000
     10 O10          3.0787  -1.4493  -0.0371 O.co2          1 <1>                0.0000
     11 O11          4.2061   0.5661  -0.0371 O.co2          1 <1>                0.0000
     12 H12          2.6908   2.3400  -0.0131 H              1 <1>                0.0000
     13 H13          0.6814  -1.2022  -0.0129 H              1 <1>                0.0000
     14 H14         -1.8556  -1.2660  -0.8791 H              1 <1>                0.0000
     15 H15         -1.8386  -1.2755   0.9008 H              1 <1>                0.0000
@<TRIPOS>BOND
    1    1    2 1     
    2    1   12 1     
    3    2    3 2     
    4    2    9 1     
    5    3    4 1     
    6    3   13 1     
    7    4    5 1     
    8    5    6 1     
    9    5   14 1     
   10    5   15 1     
   11    6    7 ar    
   12    6    8 ar    
   13    9   10 ar    
   14    9   11 ar    
@<TRIPOS>SUBSTRUCTURE
      1 ****           1
@<TRIPOS>SET
DONOR_HYDROGENS      STATIC     ATOMS    <user>   **** ""
1 12
ATOM$RED        STATIC     ATOMS    COLORGROUP SYSTEM
1 12
