#       Name:                XZN
#       Creating user name   gbret
#       Creation time:       Fri Sep  9 18:50:42 2016


#       File generated by GOLD software.
#

@<TRIPOS>MOLECULE
XZN
    66    69     1
SMALL
NO_CHARGES


@<TRIPOS>ATOM
      1 C1           1.0293   3.7613   0.7856 C.3            1 <1>                0.0000
      2 O2           1.0282   2.3323   0.7832 O.3            1 <1>                0.0000
      3 C3           0.9000   1.7170  -0.4226 C.ar           1 <1>                0.0000
      4 C4           0.7858   2.4686  -1.5567 C.ar           1 <1>                0.0000
      5 C5           0.6533   1.8368  -2.8018 C.ar           1 <1>                0.0000
      6 C6           0.5338   2.5905  -3.9926 C.ar           1 <1>                0.0000
      7 N7           0.5438   3.9705  -3.9668 N.pl3          1 <1>                0.0000
      8 C8          -0.6452   4.6748  -3.7474 C.ar           1 <1>                0.0000
      9 C9          -1.8086   3.9895  -3.4222 C.ar           1 <1>                0.0000
     10 C10         -2.9826   4.6856  -3.2051 C.ar           1 <1>                0.0000
     11 Cl11        -4.4369   3.8292  -2.7986 Cl             1 <1>                0.0000
     12 C12         -2.9990   6.0693  -3.3115 C.ar           1 <1>                0.0000
     13 O13         -4.1546   6.7540  -3.0969 O.3            1 <1>                0.0000
     14 C14         -4.4177   7.1792  -1.7582 C.3            1 <1>                0.0000
     15 C15         -1.8368   6.7546  -3.6365 C.ar           1 <1>                0.0000
     16 Cl16        -1.8580   8.4854  -3.7689 Cl             1 <1>                0.0000
     17 C17         -0.6611   6.0598  -3.8491 C.ar           1 <1>                0.0000
     18 C18          0.4052   1.8891  -5.2011 C.ar           1 <1>                0.0000
     19 C19          0.4001   0.4851  -5.1836 C.ar           1 <1>                0.0000
     20 N20          0.5120  -0.1873  -4.0666 N.ar           1 <1>                0.0000
     21 C21          0.6384   0.4231  -2.8790 C.ar           1 <1>                0.0000
     22 C22          0.7569  -0.3274  -1.6993 C.ar           1 <1>                0.0000
     23 C23          0.8919   0.3170  -0.4905 C.ar           1 <1>                0.0000
     24 O24          1.0070  -0.4117   0.6503 O.3            1 <1>                0.0000
     25 C25          0.9795  -1.8342   0.5169 C.3            1 <1>                0.0000
     26 C26          1.1209  -2.4786   1.8974 C.3            1 <1>                0.0000
     27 C27          1.0915  -4.0017   1.7546 C.3            1 <1>                0.0000
     28 N28          1.2273  -4.6204   3.0800 N.4            1 <1>                0.0000
     29 H29          2.0622  -4.2743   3.5286 H              1 <1>                0.0000
     30 C30          0.0559  -4.2835   3.8996 C.3            1 <1>                0.0000
     31 C31          0.2057  -4.9122   5.2867 C.3            1 <1>                0.0000
     32 N32          0.3264  -6.3706   5.1499 N.3            1 <1>                0.0000
     33 C33          0.4155  -7.0172   6.4660 C.3            1 <1>                0.0000
     34 C34          1.4808  -6.7225   4.3110 C.3            1 <1>                0.0000
     35 C35          1.3201  -6.0788   2.9320 C.3            1 <1>                0.0000
     36 C36          0.2801   2.5977  -6.4392 C.1            1 <1>                0.0000
     37 N37          0.1809   3.1599  -7.4214 N.1            1 <1>                0.0000
     38 H38          1.1379   4.1229   1.8081 H              1 <1>                0.0000
     39 H39          1.8604   4.1250   0.1813 H              1 <1>                0.0000
     40 H40          0.0903   4.1261   0.3691 H              1 <1>                0.0000
     41 H41          0.7970   3.5467  -1.4951 H              1 <1>                0.0000
     42 H42          1.3751   4.4521  -4.1008 H              1 <1>                0.0000
     43 H43         -1.7960   2.9128  -3.3393 H              1 <1>                0.0000
     44 H44         -4.4670   6.3089  -1.1037 H              1 <1>                0.0000
     45 H45         -3.6187   7.8407  -1.4234 H              1 <1>                0.0000
     46 H46         -5.3680   7.7121  -1.7263 H              1 <1>                0.0000
     47 H47          0.2433   6.5932  -4.1019 H              1 <1>                0.0000
     48 H48          0.3009  -0.0531  -6.1148 H              1 <1>                0.0000
     49 H49          0.7467  -1.4066  -1.7401 H              1 <1>                0.0000
     50 H50          0.0338  -2.1389   0.0688 H              1 <1>                0.0000
     51 H51          1.8036  -2.1554  -0.1201 H              1 <1>                0.0000
     52 H52          2.0667  -2.1739   2.3455 H              1 <1>                0.0000
     53 H53          0.2968  -2.1574   2.5344 H              1 <1>                0.0000
     54 H54          0.1458  -4.3064   1.3065 H              1 <1>                0.0000
     55 H55          1.9156  -4.3228   1.1176 H              1 <1>                0.0000
     56 H56         -0.0195  -3.2006   3.9978 H              1 <1>                0.0000
     57 H57         -0.8449  -4.6685   3.4216 H              1 <1>                0.0000
     58 H58          1.0990  -4.5172   5.7705 H              1 <1>                0.0000
     59 H59         -0.6704  -4.6748   5.8902 H              1 <1>                0.0000
     60 H60         -0.4822  -6.7933   7.0423 H              1 <1>                0.0000
     61 H61          0.5040  -8.0958   6.3356 H              1 <1>                0.0000
     62 H62          1.2907  -6.6423   6.9965 H              1 <1>                0.0000
     63 H63          2.3951  -6.3572   4.7788 H              1 <1>                0.0000
     64 H64          1.5349  -7.8057   4.2027 H              1 <1>                0.0000
     65 H65          0.4128  -6.4548   2.4591 H              1 <1>                0.0000
     66 H66          2.1821  -6.3267   2.3127 H              1 <1>                0.0000
@<TRIPOS>BOND
    1    1    2 1     
    2    1   38 1     
    3    1   39 1     
    4    1   40 1     
    5    2    3 1     
    6    3   23 ar    
    7    3    4 ar    
    8    4    5 ar    
    9    4   41 1     
   10    5   21 ar    
   11    5    6 ar    
   12    6    7 1     
   13    6   18 ar    
   14    7    8 1     
   15    7   42 1     
   16    8   17 ar    
   17    8    9 ar    
   18    9   10 ar    
   19    9   43 1     
   20   10   11 1     
   21   10   12 ar    
   22   12   13 1     
   23   12   15 ar    
   24   13   14 1     
   25   14   44 1     
   26   14   45 1     
   27   14   46 1     
   28   15   16 1     
   29   15   17 ar    
   30   17   47 1     
   31   18   19 ar    
   32   18   36 1     
   33   19   20 ar    
   34   19   48 1     
   35   20   21 ar    
   36   21   22 ar    
   37   22   23 ar    
   38   22   49 1     
   39   23   24 1     
   40   24   25 1     
   41   25   26 1     
   42   25   50 1     
   43   25   51 1     
   44   26   27 1     
   45   26   52 1     
   46   26   53 1     
   47   27   28 1     
   48   27   54 1     
   49   27   55 1     
   50   28   29 1     
   51   28   35 1     
   52   28   30 1     
   53   30   31 1     
   54   30   56 1     
   55   30   57 1     
   56   31   32 1     
   57   31   58 1     
   58   31   59 1     
   59   32   33 1     
   60   32   34 1     
   61   33   60 1     
   62   33   61 1     
   63   33   62 1     
   64   34   35 1     
   65   34   63 1     
   66   34   64 1     
   67   35   65 1     
   68   35   66 1     
   69   36   37 3     
@<TRIPOS>SUBSTRUCTURE
      1 ****           1
@<TRIPOS>SET
DONOR_HYDROGENS      STATIC     ATOMS    <user>   **** ""
2 42 29
ATOM$RED        STATIC     ATOMS    COLORGROUP SYSTEM
2 42 29
