#       Name:                Y0V
#       Creating user name   gbret
#       Creation time:       Fri Sep  9 18:51:33 2016


#       File generated by GOLD software.
#

@<TRIPOS>MOLECULE
Y0V
    23    24     1
SMALL
NO_CHARGES


@<TRIPOS>ATOM
      1 O1          -0.0784   3.2265   1.0951 O.3            1 <1>                0.0000
      2 C2          -0.0600   1.8703   1.0876 C.ar           1 <1>                0.0000
      3 C3          -0.0563   1.1804  -0.1136 C.ar           1 <1>                0.0000
      4 I4          -0.0783   2.2303  -1.9264 I              1 <1>                0.0000
      5 C5          -0.0375  -0.2076  -0.1145 C.ar           1 <1>                0.0000
      6 C6          -0.0228  -0.9108   1.0883 C.ar           1 <1>                0.0000
      7 I7           0.0048  -3.0055   1.0699 I              1 <1>                0.0000
      8 C8          -0.0258  -0.2425   2.2787 C.ar           1 <1>                0.0000
      9 C9          -0.0389   1.1576   2.2978 C.ar           1 <1>                0.0000
     10 C10         -0.0417   1.8780   3.5784 C.2            1 <1>                0.0000
     11 O11         -0.0326   1.2544   4.6313 O.co2          1 <1>                0.0000
     12 O12         -0.0531   3.1017   3.5920 O.co2          1 <1>                0.0000
     13 N13         -0.0337  -0.9027  -1.3270 N.pl3          1 <1>                0.0000
     14 C14         -1.0416  -0.9011  -2.2497 C.2            1 <1>                0.0000
     15 C15         -0.6696  -1.6858  -3.2807 C.2            1 <1>                0.0000
     16 C16          0.6133  -2.1913  -2.9870 C.2            1 <1>                0.0000
     17 C17          0.9809  -1.6923  -1.7898 C.2            1 <1>                0.0000
     18 H18          0.7995   3.6318   1.0889 H              1 <1>                0.0000
     19 H19         -0.0140  -0.7944   3.2070 H              1 <1>                0.0000
     20 H20         -1.9749  -0.3640  -2.1671 H              1 <1>                0.0000
     21 H21         -1.2487  -1.8904  -4.1691 H              1 <1>                0.0000
     22 H22          1.1967  -2.8539  -3.6091 H              1 <1>                0.0000
     23 H23          1.9130  -1.8888  -1.2809 H              1 <1>                0.0000
@<TRIPOS>BOND
    1    1    2 1     
    2    1   18 1     
    3    2    9 ar    
    4    2    3 ar    
    5    3    4 1     
    6    3    5 ar    
    7    5    6 ar    
    8    5   13 1     
    9    6    7 1     
   10    6    8 ar    
   11    8    9 ar    
   12    8   19 1     
   13    9   10 1     
   14   10   11 ar    
   15   10   12 ar    
   16   13   17 1     
   17   13   14 1     
   18   14   15 2     
   19   14   20 1     
   20   15   16 1     
   21   15   21 1     
   22   16   17 2     
   23   16   22 1     
   24   17   23 1     
@<TRIPOS>SUBSTRUCTURE
      1 ****           1
@<TRIPOS>SET
DONOR_HYDROGENS      STATIC     ATOMS    <user>   **** ""
1 18
ATOM$RED        STATIC     ATOMS    COLORGROUP SYSTEM
1 18
