#       Name:                YH6
#       Creating user name   gbret
#       Creation time:       Fri Sep  9 18:57:40 2016


#       File generated by GOLD software.
#

@<TRIPOS>MOLECULE
YH6
    35    37     1
SMALL
NO_CHARGES


@<TRIPOS>ATOM
      1 C1          -0.0945   6.2216  -2.5095 C.3            1 <1>                0.0000
      2 C2          -0.0740   4.7147  -2.5178 C.ar           1 <1>                0.0000
      3 C3          -0.0705   4.0330  -3.7223 C.ar           1 <1>                0.0000
      4 C4          -0.0523   2.6543  -3.7382 C.ar           1 <1>                0.0000
      5 C5          -0.0369   1.9449  -2.5330 C.ar           1 <1>                0.0000
      6 C6          -0.0402   2.6412  -1.3201 C.ar           1 <1>                0.0000
      7 C7          -0.0532   4.0200  -1.3209 C.ar           1 <1>                0.0000
      8 C8          -0.0179   0.4734  -2.5411 C.2            1 <1>                0.0000
      9 O9          -0.0156  -0.1271  -3.5945 O.2            1 <1>                0.0000
     10 C10         -0.0014  -0.2871  -1.2402 C.3            1 <1>                0.0000
     11 S11          0.0198  -2.0647  -1.5807 S.3            1 <1>                0.0000
     12 C12          0.0363  -2.6915   0.0659 C.2            1 <1>                0.0000
     13 N13          0.0267  -1.9564   1.1571 N.2            1 <1>                0.0000
     14 C14          0.0438  -2.7464   2.2420 C.2            1 <1>                0.0000
     15 N15          0.0435  -2.5036   3.5674 N.2            1 <1>                0.0000
     16 C16          0.0634  -3.4884   4.4346 C.2            1 <1>                0.0000
     17 N17          0.0619  -3.1955   5.7760 N.pl3          1 <1>                0.0000
     18 N18          0.0852  -4.7939   4.0422 N.am           1 <1>                0.0000
     19 H19          0.0996  -5.4984   4.7089 H              1 <1>                0.0000
     20 C20          0.0864  -5.1108   2.7284 C.2            1 <1>                0.0000
     21 O21          0.1058  -6.2766   2.3676 O.2            1 <1>                0.0000
     22 C22          0.0658  -4.0712   1.7904 C.2            1 <1>                0.0000
     23 N23          0.0551  -4.0108   0.4033 N.pl3          1 <1>                0.0000
     24 H24          0.0609  -4.7638  -0.2082 H              1 <1>                0.0000
     25 H25          0.9281   6.5989  -2.5172 H              1 <1>                0.0000
     26 H26         -0.6216   6.5827  -3.3926 H              1 <1>                0.0000
     27 H27         -0.6047   6.5731  -1.6127 H              1 <1>                0.0000
     28 H28         -0.0823   4.5822  -4.6521 H              1 <1>                0.0000
     29 H29         -0.0502   2.1237  -4.6789 H              1 <1>                0.0000
     30 H30         -0.0288   2.1004  -0.3854 H              1 <1>                0.0000
     31 H31         -0.0554   4.5591  -0.3851 H              1 <1>                0.0000
     32 H32          0.8880  -0.0154  -0.6718 H              1 <1>                0.0000
     33 H33         -0.8918  -0.0384  -0.6627 H              1 <1>                0.0000
     34 H34          0.0462  -2.2715   6.0707 H              1 <1>                0.0000
     35 H35          0.0763  -3.9126   6.4290 H              1 <1>                0.0000
@<TRIPOS>BOND
    1    1    2 1     
    2    1   25 1     
    3    1   26 1     
    4    1   27 1     
    5    2    7 ar    
    6    2    3 ar    
    7    3    4 ar    
    8    3   28 1     
    9    4    5 ar    
   10    4   29 1     
   11    5    6 ar    
   12    5    8 1     
   13    6    7 ar    
   14    6   30 1     
   15    7   31 1     
   16    8    9 2     
   17    8   10 1     
   18   10   11 1     
   19   10   32 1     
   20   10   33 1     
   21   11   12 1     
   22   12   23 1     
   23   12   13 2     
   24   13   14 1     
   25   14   22 2     
   26   14   15 1     
   27   15   16 2     
   28   16   17 1     
   29   16   18 1     
   30   17   34 1     
   31   17   35 1     
   32   18   19 1     
   33   18   20 am    
   34   20   21 2     
   35   20   22 1     
   36   22   23 1     
   37   23   24 1     
@<TRIPOS>SUBSTRUCTURE
      1 ****           1
@<TRIPOS>SET
DONOR_HYDROGENS      STATIC     ATOMS    <user>   **** ""
4 34 35 19 24
ATOM$RED        STATIC     ATOMS    COLORGROUP SYSTEM
4 34 35 19 24
