#       Name:                YKJ
#       Creating user name   gbret
#       Creation time:       Fri Sep  9 19:00:10 2016


#       File generated by GOLD software.
#

@<TRIPOS>MOLECULE
YKJ
    50    55     1
SMALL
NO_CHARGES


@<TRIPOS>ATOM
      1 N1           4.7163   6.5330   1.6512 N.pl3          1 <1>                0.0000
      2 C2           4.2976   5.2086   1.7091 C.ar           1 <1>                0.0000
      3 C3           2.9885   4.8851   1.3668 C.ar           1 <1>                0.0000
      4 C4           2.5843   3.5514   1.4302 C.ar           1 <1>                0.0000
      5 C5           3.5210   2.5940   1.8382 C.ar           1 <1>                0.0000
      6 C6           4.7997   2.9989   2.1604 C.ar           1 <1>                0.0000
      7 N7           5.1500   4.2685   2.0840 N.ar           1 <1>                0.0000
      8 C8           1.2004   3.1586   1.0758 C.2            1 <1>                0.0000
      9 O9           0.4003   4.0028   0.7242 O.2            1 <1>                0.0000
     10 N10          0.8289   1.8648   1.1435 N.am           1 <1>                0.0000
     11 C11         -0.5396   1.4764   0.7930 C.3            1 <1>                0.0000
     12 C12         -0.6364   1.1914  -0.6857 C.ar           1 <1>                0.0000
     13 C13         -0.4175   1.9775  -1.7968 C.ar           1 <1>                0.0000
     14 C14         -0.5851   1.4479  -3.0641 C.ar           1 <1>                0.0000
     15 C15         -0.9721   0.1286  -3.2194 C.ar           1 <1>                0.0000
     16 C16         -1.1929  -0.6657  -2.1140 C.ar           1 <1>                0.0000
     17 C17         -1.0262  -0.1380  -0.8312 C.ar           1 <1>                0.0000
     18 C18         -1.1932  -0.7525   0.5068 C.ar           1 <1>                0.0000
     19 C19         -0.9093   0.1896   1.4900 C.ar           1 <1>                0.0000
     20 C20         -0.9954  -0.1476   2.8245 C.ar           1 <1>                0.0000
     21 C21         -1.3657  -1.4286   3.2005 C.ar           1 <1>                0.0000
     22 C22         -1.6514  -2.3792   2.2424 C.ar           1 <1>                0.0000
     23 C23         -1.5699  -2.0542   0.8894 C.ar           1 <1>                0.0000
     24 C24         -1.8763  -3.0704  -0.1379 C.2            1 <1>                0.0000
     25 N25         -2.3845  -2.8183  -1.3219 N.2            1 <1>                0.0000
     26 C26         -2.5362  -3.9665  -2.0047 C.ar           1 <1>                0.0000
     27 C27         -3.0173  -4.2966  -3.2788 C.ar           1 <1>                0.0000
     28 C28         -3.0284  -5.6082  -3.6593 C.ar           1 <1>                0.0000
     29 N29         -2.5975  -6.5649  -2.8543 N.ar           1 <1>                0.0000
     30 C30         -2.1343  -6.3140  -1.6454 C.ar           1 <1>                0.0000
     31 C31         -2.0846  -5.0123  -1.1738 C.ar           1 <1>                0.0000
     32 N32         -1.6678  -4.4162  -0.0012 N.pl3          1 <1>                0.0000
     33 H33         -1.2978  -4.8662   0.7743 H              1 <1>                0.0000
     34 H34          5.6289   6.7638   1.8849 H              1 <1>                0.0000
     35 H35          4.0968   7.2257   1.3732 H              1 <1>                0.0000
     36 H36          2.2963   5.6541   1.0572 H              1 <1>                0.0000
     37 H37          3.2457   1.5516   1.9002 H              1 <1>                0.0000
     38 H38          5.5264   2.2648   2.4757 H              1 <1>                0.0000
     39 H39          1.4675   1.1908   1.4242 H              1 <1>                0.0000
     40 H40         -1.2365   2.2672   1.0704 H              1 <1>                0.0000
     41 H41         -0.1153   3.0076  -1.6781 H              1 <1>                0.0000
     42 H42         -0.4138   2.0654  -3.9334 H              1 <1>                0.0000
     43 H43         -1.1020  -0.2806  -4.2103 H              1 <1>                0.0000
     44 H44         -1.4953  -1.6949  -2.2398 H              1 <1>                0.0000
     45 H45         -0.7727   0.5908   3.5806 H              1 <1>                0.0000
     46 H46         -1.4307  -1.6841   4.2478 H              1 <1>                0.0000
     47 H47         -1.9392  -3.3763   2.5411 H              1 <1>                0.0000
     48 H48         -3.3735  -3.5273  -3.9480 H              1 <1>                0.0000
     49 H49         -3.3979  -5.8701  -4.6398 H              1 <1>                0.0000
     50 H50         -1.7927  -7.1261  -1.0208 H              1 <1>                0.0000
@<TRIPOS>BOND
    1    1    2 1     
    2    1   34 1     
    3    1   35 1     
    4    2    7 ar    
    5    2    3 ar    
    6    3    4 ar    
    7    3   36 1     
    8    4    5 ar    
    9    4    8 1     
   10    5    6 ar    
   11    5   37 1     
   12    6    7 ar    
   13    6   38 1     
   14    8    9 2     
   15    8   10 am    
   16   10   11 1     
   17   10   39 1     
   18   11   19 1     
   19   11   12 1     
   20   11   40 1     
   21   12   17 ar    
   22   12   13 ar    
   23   13   14 ar    
   24   13   41 1     
   25   14   15 ar    
   26   14   42 1     
   27   15   16 ar    
   28   15   43 1     
   29   16   17 ar    
   30   16   44 1     
   31   17   18 1     
   32   18   23 ar    
   33   18   19 ar    
   34   19   20 ar    
   35   20   21 ar    
   36   20   45 1     
   37   21   22 ar    
   38   21   46 1     
   39   22   23 ar    
   40   22   47 1     
   41   23   24 1     
   42   24   32 1     
   43   24   25 2     
   44   25   26 1     
   45   26   31 ar    
   46   26   27 ar    
   47   27   28 ar    
   48   27   48 1     
   49   28   29 ar    
   50   28   49 1     
   51   29   30 ar    
   52   30   31 ar    
   53   30   50 1     
   54   31   32 1     
   55   32   33 1     
@<TRIPOS>SUBSTRUCTURE
      1 ****           1
@<TRIPOS>SET
DONOR_HYDROGENS      STATIC     ATOMS    <user>   **** ""
4 34 35 39 33
ATOM$RED        STATIC     ATOMS    COLORGROUP SYSTEM
4 34 35 39 33
