#       Name:                YM3
#       Creating user name   gbret
#       Creation time:       Fri Sep  9 19:01:16 2016


#       File generated by GOLD software.
#

@<TRIPOS>MOLECULE
YM3
    43    45     1
SMALL
NO_CHARGES


@<TRIPOS>ATOM
      1 C1          -1.8162   5.4719   1.4051 C.3            1 <1>                0.0000
      2 C2          -1.7473   3.9435   1.4170 C.3            1 <1>                0.0000
      3 O3          -1.0073   3.4833   0.2556 O.3            1 <1>                0.0000
      4 C4          -0.8545   2.1514   0.1156 C.2            1 <1>                0.0000
      5 O5          -1.3269   1.3953   0.9419 O.2            1 <1>                0.0000
      6 C6          -0.1162   1.6130  -1.0366 C.ar           1 <1>                0.0000
      7 C7           0.3373   2.4662  -2.0520 C.ar           1 <1>                0.0000
      8 N8           0.9969   2.0050  -3.0875 N.pl3          1 <1>                0.0000
      9 H9           1.2940   2.6271  -3.7698 H              1 <1>                0.0000
     10 C10          1.2722   0.7100  -3.2321 C.ar           1 <1>                0.0000
     11 N11          1.9283  -0.0032  -4.1957 N.pl3          1 <1>                0.0000
     12 H12          2.3322   0.3636  -4.9977 H              1 <1>                0.0000
     13 N13          1.9182  -1.3533  -3.8270 N.2            1 <1>                0.0000
     14 C14          1.2925  -1.4941  -2.6942 C.2            1 <1>                0.0000
     15 C15          0.8569  -0.2200  -2.2626 C.ar           1 <1>                0.0000
     16 C16          0.1501   0.2352  -1.1327 C.ar           1 <1>                0.0000
     17 N17         -0.2696  -0.6414  -0.1541 N.3            1 <1>                0.0000
     18 C18         -1.2133  -1.6277  -0.6999 C.3            1 <1>                0.0000
     19 C19         -1.6983  -2.5410   0.4291 C.3            1 <1>                0.0000
     20 O20         -0.5698  -3.1592   1.0535 O.3            1 <1>                0.0000
     21 C21          0.3696  -2.2276   1.5967 C.3            1 <1>                0.0000
     22 C22          1.5486  -2.9881   2.2069 C.3            1 <1>                0.0000
     23 N23          1.0616  -3.8711   3.2752 N.4            1 <1>                0.0000
     24 H24          0.6120  -3.3183   3.9896 H              1 <1>                0.0000
     25 H25          0.3992  -4.5288   2.8921 H              1 <1>                0.0000
     26 H26          1.8392  -4.3726   3.6776 H              1 <1>                0.0000
     27 C27          0.8755  -1.3112   0.4795 C.3            1 <1>                0.0000
     28 H28         -0.8064   5.8813   1.4321 H              1 <1>                0.0000
     29 H29         -2.3195   5.8059   0.4978 H              1 <1>                0.0000
     30 H30         -2.3717   5.8174   2.2769 H              1 <1>                0.0000
     31 H31         -1.2440   3.6095   2.3243 H              1 <1>                0.0000
     32 H32         -2.7571   3.5341   1.3900 H              1 <1>                0.0000
     33 H33          0.1391   3.5254  -1.9803 H              1 <1>                0.0000
     34 H34          1.1326  -2.4263  -2.1727 H              1 <1>                0.0000
     35 H35         -2.0654  -1.1108  -1.1413 H              1 <1>                0.0000
     36 H36         -0.7144  -2.2255  -1.4627 H              1 <1>                0.0000
     37 H37         -2.2439  -1.9510   1.1656 H              1 <1>                0.0000
     38 H38         -2.3538  -3.3095   0.0194 H              1 <1>                0.0000
     39 H39         -0.1157  -1.6291   2.3676 H              1 <1>                0.0000
     40 H40          2.0344  -3.5853   1.4352 H              1 <1>                0.0000
     41 H41          2.2642  -2.2776   2.6207 H              1 <1>                0.0000
     42 H42          1.4078  -1.9039  -0.2644 H              1 <1>                0.0000
     43 H43          1.5482  -0.5631   0.8990 H              1 <1>                0.0000
@<TRIPOS>BOND
    1    1    2 1     
    2    1   28 1     
    3    1   29 1     
    4    1   30 1     
    5    2    3 1     
    6    2   31 1     
    7    2   32 1     
    8    3    4 1     
    9    4    5 2     
   10    4    6 1     
   11    6   16 ar    
   12    6    7 ar    
   13    7    8 ar    
   14    7   33 1     
   15    8    9 1     
   16    8   10 ar    
   17   10   15 ar    
   18   10   11 1     
   19   11   12 1     
   20   11   13 1     
   21   13   14 2     
   22   14   15 1     
   23   14   34 1     
   24   15   16 ar    
   25   16   17 1     
   26   17   27 1     
   27   17   18 1     
   28   18   19 1     
   29   18   35 1     
   30   18   36 1     
   31   19   20 1     
   32   19   37 1     
   33   19   38 1     
   34   20   21 1     
   35   21   22 1     
   36   21   27 1     
   37   21   39 1     
   38   22   23 1     
   39   22   40 1     
   40   22   41 1     
   41   23   24 1     
   42   23   25 1     
   43   23   26 1     
   44   27   42 1     
   45   27   43 1     
@<TRIPOS>SUBSTRUCTURE
      1 ****           1
@<TRIPOS>SET
DONOR_HYDROGENS      STATIC     ATOMS    <user>   **** ""
5 9 12 24 25 26
ATOM$RED        STATIC     ATOMS    COLORGROUP SYSTEM
5 9 12 24 25 26
