#       Name:                YWO
#       Creating user name   gbret
#       Creation time:       Fri Sep  9 19:05:25 2016


#       File generated by GOLD software.
#

@<TRIPOS>MOLECULE
YWO
    41    42     1
SMALL
NO_CHARGES


@<TRIPOS>ATOM
      1 C1           4.1951  -0.8071  -2.1781 C.3            1 <1>                0.0000
      2 C2           2.9002  -1.2295  -2.8230 C.ar           1 <1>                0.0000
      3 C3           2.9150  -1.8616  -4.0529 C.ar           1 <1>                0.0000
      4 C4           1.7289  -2.2504  -4.6473 C.ar           1 <1>                0.0000
      5 C5           0.5254  -2.0087  -4.0133 C.ar           1 <1>                0.0000
      6 C6           0.5078  -1.3752  -2.7791 C.ar           1 <1>                0.0000
      7 O7          -0.6745  -1.1363  -2.1534 O.3            1 <1>                0.0000
      8 C8          -0.6432  -0.5103  -0.9478 C.ar           1 <1>                0.0000
      9 C9          -0.7047   0.8743  -0.8818 C.ar           1 <1>                0.0000
     10 C10         -0.6731   1.5082   0.3451 C.ar           1 <1>                0.0000
     11 C11         -0.5799   0.7642   1.5068 C.ar           1 <1>                0.0000
     12 C12         -0.5457   1.4584   2.8440 C.3            1 <1>                0.0000
     13 C13         -1.9733   1.6256   3.3685 C.3            1 <1>                0.0000
     14 N14         -2.5561   0.3031   3.6320 N.4            1 <1>                0.0000
     15 H15         -2.5723  -0.2335   2.7778 H              1 <1>                0.0000
     16 H16         -1.9987  -0.1787   4.3214 H              1 <1>                0.0000
     17 H17         -3.4975   0.4134   3.9780 H              1 <1>                0.0000
     18 C18         -1.9490   2.4272   4.6444 C.2            1 <1>                0.0000
     19 N19         -1.8460   3.7701   4.5947 N.am           1 <1>                0.0000
     20 O20         -2.0221   1.8638   5.7159 O.2            1 <1>                0.0000
     21 C21         -0.5185  -0.6157   1.4439 C.ar           1 <1>                0.0000
     22 C22         -0.5555  -1.2548   0.2198 C.ar           1 <1>                0.0000
     23 C23          1.7002  -0.9903  -2.1825 C.ar           1 <1>                0.0000
     24 N24         -0.7443  -2.4248  -4.6505 N.pl3          1 <1>                0.0000
     25 O25         -0.7283  -2.9805  -5.7342 O.2            1 <1>                0.0000
     26 O26         -1.8049  -2.2114  -4.0910 O.2            1 <1>                0.0000
     27 H27          4.5736  -1.6191  -1.5571 H              1 <1>                0.0000
     28 H28          4.9259  -0.5703  -2.9514 H              1 <1>                0.0000
     29 H29          4.0226   0.0734  -1.5593 H              1 <1>                0.0000
     30 H30          3.8547  -2.0514  -4.5502 H              1 <1>                0.0000
     31 H31          1.7430  -2.7431  -5.6082 H              1 <1>                0.0000
     32 H32         -0.7768   1.4560  -1.7890 H              1 <1>                0.0000
     33 H33         -0.7210   2.5859   0.3970 H              1 <1>                0.0000
     34 H34          0.0327   0.8612   3.5488 H              1 <1>                0.0000
     35 H35         -0.0825   2.4388   2.7326 H              1 <1>                0.0000
     36 H36         -2.5754   2.1461   2.6238 H              1 <1>                0.0000
     37 H37         -1.8306   4.2860   5.4159 H              1 <1>                0.0000
     38 H38         -1.7875   4.2206   3.7376 H              1 <1>                0.0000
     39 H39         -0.4454  -1.1945   2.3528 H              1 <1>                0.0000
     40 H40         -0.5075  -2.3327   0.1712 H              1 <1>                0.0000
     41 H41          1.6893  -0.4970  -1.2218 H              1 <1>                0.0000
@<TRIPOS>BOND
    1    1    2 1     
    2    1   27 1     
    3    1   28 1     
    4    1   29 1     
    5    2   23 ar    
    6    2    3 ar    
    7    3    4 ar    
    8    3   30 1     
    9    4    5 ar    
   10    4   31 1     
   11    5    6 ar    
   12    5   24 1     
   13    6    7 1     
   14    6   23 ar    
   15    7    8 1     
   16    8   22 ar    
   17    8    9 ar    
   18    9   10 ar    
   19    9   32 1     
   20   10   11 ar    
   21   10   33 1     
   22   11   12 1     
   23   11   21 ar    
   24   12   13 1     
   25   12   34 1     
   26   12   35 1     
   27   13   14 1     
   28   13   18 1     
   29   13   36 1     
   30   14   15 1     
   31   14   16 1     
   32   14   17 1     
   33   18   19 am    
   34   18   20 2     
   35   19   37 1     
   36   19   38 1     
   37   21   22 ar    
   38   21   39 1     
   39   22   40 1     
   40   23   41 1     
   41   24   25 2     
   42   24   26 2     
@<TRIPOS>SUBSTRUCTURE
      1 ****           1
@<TRIPOS>SET
DONOR_HYDROGENS      STATIC     ATOMS    <user>   **** ""
5 15 16 17 37 38
ATOM$RED        STATIC     ATOMS    COLORGROUP SYSTEM
5 15 16 17 37 38
