#       Name:                YYY
#       Creating user name   gbret
#       Creation time:       Fri Sep  9 19:06:03 2016


#       File generated by GOLD software.
#

@<TRIPOS>MOLECULE
YYY
    36    37     1
SMALL
NO_CHARGES


@<TRIPOS>ATOM
      1 N1          -1.4297   5.6611  -1.2352 N.pl3          1 <1>                0.0000
      2 C2          -1.4110   4.2856  -1.2428 C.2            1 <1>                0.0000
      3 C3          -2.6201   3.5601  -1.2410 C.2            1 <1>                0.0000
      4 C4          -2.5730   2.2069  -1.2491 C.2            1 <1>                0.0000
      5 N5          -1.3620   1.5822  -1.2586 N.am           1 <1>                0.0000
      6 C6          -1.2970   0.1187  -1.2679 C.3            1 <1>                0.0000
      7 C7          -0.5964  -0.3804  -2.5510 C.3            1 <1>                0.0000
      8 C8           0.2292  -1.5980  -2.0786 C.3            1 <1>                0.0000
      9 O9           1.6231  -1.3743  -2.3002 O.3            1 <1>                0.0000
     10 C10         -0.0703  -1.6905  -0.5659 C.3            1 <1>                0.0000
     11 C11          1.1846  -2.1129   0.2007 C.3            1 <1>                0.0000
     12 O12          0.8587  -2.3053   1.5787 O.3            1 <1>                0.0000
     13 P13          1.9423  -2.7545   2.6815 P.3            1 <1>                0.0000
     14 O14          2.4470  -4.1783   2.3575 O.co2          1 <1>                0.0000
     15 O15          3.1328  -1.7699   2.6647 O.co2          1 <1>                0.0000
     16 O16          1.2594  -2.7460   4.1394 O.3            1 <1>                0.0000
     17 P17          1.8327  -2.6861   5.6427 P.3            1 <1>                0.0000
     18 O18          2.1999  -1.2063   6.0030 O.co2          1 <1>                0.0000
     19 O19          0.7431  -3.2110   6.6385 O.co2          1 <1>                0.0000
     20 O20          3.1130  -3.5826   5.7494 O.co2          1 <1>                0.0000
     21 O21         -0.4659  -0.3546  -0.1857 O.3            1 <1>                0.0000
     22 C22         -0.2255   2.3027  -1.2601 C.2            1 <1>                0.0000
     23 O23          0.8499   1.7268  -1.2691 O.2            1 <1>                0.0000
     24 N24         -0.2555   3.6342  -1.2573 N.2            1 <1>                0.0000
     25 H25         -0.5963   6.1575  -1.2404 H              1 <1>                0.0000
     26 H26         -2.2762   6.1347  -1.2286 H              1 <1>                0.0000
     27 H27         -3.5690   4.0758  -1.2330 H              1 <1>                0.0000
     28 H28         -3.4854   1.6289  -1.2476 H              1 <1>                0.0000
     29 H29         -2.2982  -0.3054  -1.1908 H              1 <1>                0.0000
     30 H30         -1.3329  -0.6838  -3.2950 H              1 <1>                0.0000
     31 H31          0.0587   0.3922  -2.9536 H              1 <1>                0.0000
     32 H32         -0.0976  -2.5030  -2.5908 H              1 <1>                0.0000
     33 H33          1.8583  -1.2486  -3.2297 H              1 <1>                0.0000
     34 H34         -0.8815  -2.3950  -0.3821 H              1 <1>                0.0000
     35 H35          1.5682  -3.0444  -0.2155 H              1 <1>                0.0000
     36 H36          1.9434  -1.3355   0.1119 H              1 <1>                0.0000
@<TRIPOS>BOND
    1    1    2 1     
    2    1   25 1     
    3    1   26 1     
    4    2   24 2     
    5    2    3 1     
    6    3    4 2     
    7    3   27 1     
    8    4    5 1     
    9    4   28 1     
   10    5    6 1     
   11    5   22 am    
   12    6   21 1     
   13    6    7 1     
   14    6   29 1     
   15    7    8 1     
   16    7   30 1     
   17    7   31 1     
   18    8    9 1     
   19    8   10 1     
   20    8   32 1     
   21    9   33 1     
   22   10   11 1     
   23   10   21 1     
   24   10   34 1     
   25   11   12 1     
   26   11   35 1     
   27   11   36 1     
   28   12   13 1     
   29   13   14 ar    
   30   13   15 ar    
   31   13   16 1     
   32   16   17 1     
   33   17   18 ar    
   34   17   19 ar    
   35   17   20 ar    
   36   22   23 2     
   37   22   24 1     
@<TRIPOS>SUBSTRUCTURE
      1 ****           1
@<TRIPOS>SET
DONOR_HYDROGENS      STATIC     ATOMS    <user>   **** ""
3 25 26 33
ATOM$RED        STATIC     ATOMS    COLORGROUP SYSTEM
3 25 26 33
