#       Name:                Z47
#       Creating user name   gbret
#       Creation time:       Fri Sep  9 19:08:36 2016


#       File generated by GOLD software.
#

@<TRIPOS>MOLECULE
Z47
    48    50     1
SMALL
NO_CHARGES


@<TRIPOS>ATOM
      1 O1           2.8885   0.1408   2.3198 O.3            1 <1>                0.0000
      2 C2           2.9079  -1.2881   2.3119 C.3            1 <1>                0.0000
      3 C3           1.4725  -1.8176   2.3228 C.3            1 <1>                0.0000
      4 O4           0.8171  -1.4430   1.1094 O.3            1 <1>                0.0000
      5 C5          -0.5448  -1.8678   1.0267 C.3            1 <1>                0.0000
      6 C6          -1.1493  -1.3890  -0.2947 C.3            1 <1>                0.0000
      7 C7          -1.2009   0.1401  -0.3076 C.3            1 <1>                0.0000
      8 C8          -1.8053   0.6189  -1.6290 C.3            1 <1>                0.0000
      9 C9          -1.8561   2.1250  -1.6417 C.ar           1 <1>                0.0000
     10 C10         -2.9892   2.7746  -1.2578 C.ar           1 <1>                0.0000
     11 C11         -3.0547   4.1664  -1.2625 C.ar           1 <1>                0.0000
     12 C12         -1.9877   4.9170  -1.6514 C.ar           1 <1>                0.0000
     13 C13         -0.8009   4.2819  -2.0543 C.ar           1 <1>                0.0000
     14 C14          0.3215   5.0231  -2.4619 C.ar           1 <1>                0.0000
     15 C15          1.4543   4.3736  -2.8452 C.ar           1 <1>                0.0000
     16 C16          1.5198   2.9814  -2.8407 C.ar           1 <1>                0.0000
     17 C17          0.4528   2.2309  -2.4528 C.ar           1 <1>                0.0000
     18 C18         -0.7324   2.8662  -2.0441 C.ar           1 <1>                0.0000
     19 C19         -0.6060  -3.3961   1.0920 C.3            1 <1>                0.0000
     20 O20          0.0878  -3.9502  -0.0276 O.3            1 <1>                0.0000
     21 C21          0.0549  -3.8708   2.3898 C.3            1 <1>                0.0000
     22 O22          0.0678  -5.2993   2.4249 O.3            1 <1>                0.0000
     23 C23          1.4923  -3.3439   2.4402 C.3            1 <1>                0.0000
     24 O24          2.2417  -3.8966   1.3562 O.3            1 <1>                0.0000
     25 H25          3.7664   0.5461   2.3136 H              1 <1>                0.0000
     26 H26          3.4181  -1.6396   1.4151 H              1 <1>                0.0000
     27 H27          3.4351  -1.6491   3.1950 H              1 <1>                0.0000
     28 H28          0.9354  -1.3947   3.1718 H              1 <1>                0.0000
     29 H29         -1.1085  -1.4454   1.8585 H              1 <1>                0.0000
     30 H30         -0.5339  -1.7387  -1.1237 H              1 <1>                0.0000
     31 H31         -2.1586  -1.7875  -0.3981 H              1 <1>                0.0000
     32 H32         -1.8162   0.4898   0.5213 H              1 <1>                0.0000
     33 H33         -0.1916   0.5385  -0.2042 H              1 <1>                0.0000
     34 H34         -1.1900   0.2692  -2.4579 H              1 <1>                0.0000
     35 H35         -2.8146   0.2205  -1.7324 H              1 <1>                0.0000
     36 H36         -3.8503   2.2026  -0.9453 H              1 <1>                0.0000
     37 H37         -3.9657   4.6570  -0.9532 H              1 <1>                0.0000
     38 H38         -2.0532   5.9950  -1.6506 H              1 <1>                0.0000
     39 H39          0.2851   6.1025  -2.4712 H              1 <1>                0.0000
     40 H40          2.3153   4.9456  -3.1580 H              1 <1>                0.0000
     41 H41          2.4308   2.4908  -3.1501 H              1 <1>                0.0000
     42 H42          0.5180   1.1529  -2.4548 H              1 <1>                0.0000
     43 H43         -1.6466  -3.7202   1.0724 H              1 <1>                0.0000
     44 H44          0.0892  -4.9169  -0.0504 H              1 <1>                0.0000
     45 H45         -0.5046  -3.4901   3.2443 H              1 <1>                0.0000
     46 H46          0.4730  -5.6695   3.2211 H              1 <1>                0.0000
     47 H47          1.9524  -3.6306   3.3858 H              1 <1>                0.0000
     48 H48          3.1633  -3.6052   1.3263 H              1 <1>                0.0000
@<TRIPOS>BOND
    1    1    2 1     
    2    1   25 1     
    3    2    3 1     
    4    2   26 1     
    5    2   27 1     
    6    3   23 1     
    7    3    4 1     
    8    3   28 1     
    9    4    5 1     
   10    5    6 1     
   11    5   19 1     
   12    5   29 1     
   13    6    7 1     
   14    6   30 1     
   15    6   31 1     
   16    7    8 1     
   17    7   32 1     
   18    7   33 1     
   19    8    9 1     
   20    8   34 1     
   21    8   35 1     
   22    9   18 ar    
   23    9   10 ar    
   24   10   11 ar    
   25   10   36 1     
   26   11   12 ar    
   27   11   37 1     
   28   12   13 ar    
   29   12   38 1     
   30   13   18 ar    
   31   13   14 ar    
   32   14   15 ar    
   33   14   39 1     
   34   15   16 ar    
   35   15   40 1     
   36   16   17 ar    
   37   16   41 1     
   38   17   18 ar    
   39   17   42 1     
   40   19   20 1     
   41   19   21 1     
   42   19   43 1     
   43   20   44 1     
   44   21   22 1     
   45   21   23 1     
   46   21   45 1     
   47   22   46 1     
   48   23   24 1     
   49   23   47 1     
   50   24   48 1     
@<TRIPOS>SUBSTRUCTURE
      1 ****           1
@<TRIPOS>SET
DONOR_HYDROGENS      STATIC     ATOMS    <user>   **** ""
4 25 44 46 48
ATOM$RED        STATIC     ATOMS    COLORGROUP SYSTEM
4 25 44 46 48
