#       Name:                Z71
#       Creating user name   gbret
#       Creation time:       Fri Sep  9 19:09:56 2016


#       File generated by GOLD software.
#

@<TRIPOS>MOLECULE
Z71
    41    43     1
SMALL
NO_CHARGES


@<TRIPOS>ATOM
      1 N1           0.3224   2.3329   0.0205 N.pl3          1 <1>                0.0000
      2 C2           0.3861   0.9488   0.0947 C.2            1 <1>                0.0000
      3 N3          -0.6751   0.1872   0.2342 N.2            1 <1>                0.0000
      4 C4          -0.4831  -1.0987   0.2904 C.2            1 <1>                0.0000
      5 N5          -1.4853  -2.0345   0.4340 N.pl3          1 <1>                0.0000
      6 C6          -2.8245  -1.6352   0.4006 C.ar           1 <1>                0.0000
      7 C7          -3.2084  -0.5510  -0.3784 C.ar           1 <1>                0.0000
      8 C8          -4.5323  -0.1592  -0.4091 C.ar           1 <1>                0.0000
      9 C9          -5.4754  -0.8448   0.3345 C.ar           1 <1>                0.0000
     10 C10         -5.0966  -1.9245   1.1110 C.ar           1 <1>                0.0000
     11 C11         -3.7753  -2.3252   1.1418 C.ar           1 <1>                0.0000
     12 S12         -7.1633  -0.3411   0.2928 S.o2           1 <1>                0.0000
     13 N13         -7.8921  -1.1705  -0.9415 N.pl3          1 <1>                0.0000
     14 O14         -7.7528  -0.8132   1.4965 O.2            1 <1>                0.0000
     15 O15         -7.1643   1.0279  -0.0882 O.2            1 <1>                0.0000
     16 S16          1.1799  -1.4695   0.1614 S.3            1 <1>                0.0000
     17 C17          1.5682   0.2434   0.0232 C.2            1 <1>                0.0000
     18 C18          2.8574   0.7942  -0.1271 C.2            1 <1>                0.0000
     19 O19          2.9979   2.0018  -0.2129 O.2            1 <1>                0.0000
     20 N20          3.9344  -0.0147  -0.1760 N.am           1 <1>                0.0000
     21 C21          5.2197   0.5343  -0.2170 C.ar           1 <1>                0.0000
     22 C22          6.2247  -0.1015  -0.9342 C.ar           1 <1>                0.0000
     23 C23          7.4958   0.4433  -0.9735 C.ar           1 <1>                0.0000
     24 F24          8.4737  -0.1746  -1.6714 F              1 <1>                0.0000
     25 C25          7.7662   1.6216  -0.2983 C.ar           1 <1>                0.0000
     26 C26          6.7657   2.2570   0.4178 C.ar           1 <1>                0.0000
     27 F27          7.0323   3.4063   1.0760 F              1 <1>                0.0000
     28 C28          5.4917   1.7189   0.4546 C.ar           1 <1>                0.0000
     29 H29          1.1356   2.8507  -0.0868 H              1 <1>                0.0000
     30 H30         -0.5356   2.7824   0.0720 H              1 <1>                0.0000
     31 H31         -1.2610  -2.9700   0.5583 H              1 <1>                0.0000
     32 H32         -2.4723  -0.0150  -0.9590 H              1 <1>                0.0000
     33 H33         -4.8313   0.6839  -1.0143 H              1 <1>                0.0000
     34 H34         -5.8356  -2.4576   1.6908 H              1 <1>                0.0000
     35 H35         -3.4802  -3.1688   1.7482 H              1 <1>                0.0000
     36 H36         -7.3776  -1.7952  -1.4762 H              1 <1>                0.0000
     37 H37         -8.8334  -1.0316  -1.1297 H              1 <1>                0.0000
     38 H38          3.8178  -0.9776  -0.1827 H              1 <1>                0.0000
     39 H39          6.0143  -1.0207  -1.4606 H              1 <1>                0.0000
     40 H40          8.7591   2.0456  -0.3300 H              1 <1>                0.0000
     41 H41          4.7116   2.2147   1.0132 H              1 <1>                0.0000
@<TRIPOS>BOND
    1    1    2 1     
    2    1   29 1     
    3    1   30 1     
    4    2   17 2     
    5    2    3 1     
    6    3    4 2     
    7    4    5 1     
    8    4   16 1     
    9    5    6 1     
   10    5   31 1     
   11    6   11 ar    
   12    6    7 ar    
   13    7    8 ar    
   14    7   32 1     
   15    8    9 ar    
   16    8   33 1     
   17    9   10 ar    
   18    9   12 1     
   19   10   11 ar    
   20   10   34 1     
   21   11   35 1     
   22   12   13 1     
   23   12   14 2     
   24   12   15 2     
   25   13   36 1     
   26   13   37 1     
   27   16   17 1     
   28   17   18 1     
   29   18   19 2     
   30   18   20 am    
   31   20   21 1     
   32   20   38 1     
   33   21   28 ar    
   34   21   22 ar    
   35   22   23 ar    
   36   22   39 1     
   37   23   24 1     
   38   23   25 ar    
   39   25   26 ar    
   40   25   40 1     
   41   26   27 1     
   42   26   28 ar    
   43   28   41 1     
@<TRIPOS>SUBSTRUCTURE
      1 ****           1
@<TRIPOS>SET
DONOR_HYDROGENS      STATIC     ATOMS    <user>   **** ""
6 29 30 31 36 37 38
ATOM$RED        STATIC     ATOMS    COLORGROUP SYSTEM
6 29 30 31 36 37 38
