#       Name:                ZBA
#       Creating user name   gbret
#       Creation time:       Fri Sep  9 19:13:08 2016


#       File generated by GOLD software.
#

@<TRIPOS>MOLECULE
ZBA
    65    68     1
SMALL
NO_CHARGES


@<TRIPOS>ATOM
      1 C1           3.2006   3.5685   3.9749 C.3            1 <1>                0.0000
      2 C2           2.9682   2.0919   4.1666 C.2            1 <1>                0.0000
      3 C3           2.9705   1.5796   5.3723 C.2            1 <1>                0.0000
      4 C4           2.7333   1.2047   2.9714 C.3            1 <1>                0.0000
      5 C5           1.2733   1.2392   2.5994 C.2            1 <1>                0.0000
      6 O6           0.4874   1.8407   3.2924 O.2            1 <1>                0.0000
      7 O7           0.8461   0.6017   1.4981 O.3            1 <1>                0.0000
      8 C8          -0.5703   0.6920   1.1918 C.3            1 <1>                0.0000
      9 C9          -0.7517   0.7554  -0.3284 C.3            1 <1>                0.0000
     10 C10         -0.5269  -0.6489  -0.8868 C.3            1 <1>                0.0000
     11 C11          0.8150  -1.1924  -0.3921 C.3            1 <1>                0.0000
     12 O12          1.8869  -0.3285  -0.8536 O.3            1 <1>                0.0000
     13 C13          3.1315  -0.6361  -0.4560 C.2            1 <1>                0.0000
     14 C14          4.2815   0.2713  -0.8099 C.3            1 <1>                0.0000
     15 O15          3.3299  -1.6405   0.1856 O.2            1 <1>                0.0000
     16 C16         -1.6768  -1.5358  -0.4015 C.3            1 <1>                0.0000
     17 O17         -1.5570  -2.8478  -0.9325 O.3            1 <1>                0.0000
     18 C18         -1.5592  -2.8444  -2.3810 C.3            1 <1>                0.0000
     19 C19         -2.6799  -1.8591  -2.8048 C.3            1 <1>                0.0000
     20 O20         -3.7430  -1.8851  -1.8502 O.3            1 <1>                0.0000
     21 C21         -2.0359  -0.4600  -2.8413 C.3            1 <1>                0.0000
     22 O22         -2.7059   0.4221  -1.9024 O.3            1 <1>                0.0000
     23 C23         -3.7343   1.1451  -2.3730 C.2            1 <1>                0.0000
     24 C24         -4.4779   2.0825  -1.4569 C.3            1 <1>                0.0000
     25 O25         -4.0638   1.0442  -3.5311 O.2            1 <1>                0.0000
     26 C26         -0.5530  -0.6522  -2.4268 C.3            1 <1>                0.0000
     27 C27          0.3975   0.3680  -3.0565 C.3            1 <1>                0.0000
     28 C28         -0.2776  -2.1187  -2.8264 C.3            1 <1>                0.0000
     29 C29          1.0979  -2.7432  -2.7142 C.3            1 <1>                0.0000
     30 O30          0.4626  -2.4777  -3.9709 O.3            1 <1>                0.0000
     31 C31         -1.7580  -1.4870   1.0885 C.2            1 <1>                0.0000
     32 C32         -1.2752  -0.4945   1.7765 C.2            1 <1>                0.0000
     33 C33         -1.4367  -0.5410   3.2741 C.3            1 <1>                0.0000
     34 H34          4.2676   3.7559   3.8551 H              1 <1>                0.0000
     35 H35          2.6701   3.9073   3.0850 H              1 <1>                0.0000
     36 H36          2.8320   4.1104   4.8459 H              1 <1>                0.0000
     37 H37          3.1389   2.2155   6.2289 H              1 <1>                0.0000
     38 H38          2.8040   0.5214   5.5097 H              1 <1>                0.0000
     39 H39          3.3307   1.5603   2.1319 H              1 <1>                0.0000
     40 H40          3.0220   0.1823   3.2154 H              1 <1>                0.0000
     41 H41         -0.9740   1.6016   1.6366 H              1 <1>                0.0000
     42 H42         -1.7618   1.0893  -0.5657 H              1 <1>                0.0000
     43 H43         -0.0244   1.4441  -0.7583 H              1 <1>                0.0000
     44 H44          0.8157  -1.2218   0.6975 H              1 <1>                0.0000
     45 H45          0.9657  -2.1987  -0.7828 H              1 <1>                0.0000
     46 H46          3.9007   1.1632  -1.3076 H              1 <1>                0.0000
     47 H47          4.8096   0.5599   0.0989 H              1 <1>                0.0000
     48 H48          4.9659  -0.2528  -1.4770 H              1 <1>                0.0000
     49 H49         -2.6044  -1.1087  -0.7826 H              1 <1>                0.0000
     50 H50         -1.6598  -3.8412  -2.8105 H              1 <1>                0.0000
     51 H51         -3.0576  -2.1241  -3.7923 H              1 <1>                0.0000
     52 H52         -4.1721  -2.7473  -1.7628 H              1 <1>                0.0000
     53 H53         -2.0936  -0.0474  -3.8485 H              1 <1>                0.0000
     54 H54         -4.0099   3.0665  -1.4863 H              1 <1>                0.0000
     55 H55         -5.5147   2.1634  -1.7836 H              1 <1>                0.0000
     56 H56         -4.4471   1.6957  -0.4383 H              1 <1>                0.0000
     57 H57          0.1111   1.3723  -2.7445 H              1 <1>                0.0000
     58 H58          1.4175   0.1635  -2.7309 H              1 <1>                0.0000
     59 H59          0.3413   0.2950  -4.1426 H              1 <1>                0.0000
     60 H60          1.9261  -2.1000  -2.4166 H              1 <1>                0.0000
     61 H61          1.1607  -3.7802  -2.3847 H              1 <1>                0.0000
     62 H62         -2.2337  -2.3029   1.6124 H              1 <1>                0.0000
     63 H63         -1.9632  -1.4532   3.5546 H              1 <1>                0.0000
     64 H64         -0.4542  -0.5288   3.7460 H              1 <1>                0.0000
     65 H65         -2.0093   0.3255   3.6048 H              1 <1>                0.0000
@<TRIPOS>BOND
    1    1    2 1     
    2    1   34 1     
    3    1   35 1     
    4    1   36 1     
    5    2    3 2     
    6    2    4 1     
    7    3   37 1     
    8    3   38 1     
    9    4    5 1     
   10    4   39 1     
   11    4   40 1     
   12    5    6 2     
   13    5    7 1     
   14    7    8 1     
   15    8   32 1     
   16    8    9 1     
   17    8   41 1     
   18    9   10 1     
   19    9   42 1     
   20    9   43 1     
   21   10   26 1     
   22   10   11 1     
   23   10   16 1     
   24   11   12 1     
   25   11   44 1     
   26   11   45 1     
   27   12   13 1     
   28   13   14 1     
   29   13   15 2     
   30   14   46 1     
   31   14   47 1     
   32   14   48 1     
   33   16   17 1     
   34   16   31 1     
   35   16   49 1     
   36   17   18 1     
   37   18   28 1     
   38   18   19 1     
   39   18   50 1     
   40   19   20 1     
   41   19   21 1     
   42   19   51 1     
   43   20   52 1     
   44   21   22 1     
   45   21   26 1     
   46   21   53 1     
   47   22   23 1     
   48   23   24 1     
   49   23   25 2     
   50   24   54 1     
   51   24   55 1     
   52   24   56 1     
   53   26   27 1     
   54   26   28 1     
   55   27   57 1     
   56   27   58 1     
   57   27   59 1     
   58   28   30 1     
   59   28   29 1     
   60   29   30 1     
   61   29   60 1     
   62   29   61 1     
   63   31   32 2     
   64   31   62 1     
   65   32   33 1     
   66   33   63 1     
   67   33   64 1     
   68   33   65 1     
@<TRIPOS>SUBSTRUCTURE
      1 ****           1
@<TRIPOS>SET
DONOR_HYDROGENS      STATIC     ATOMS    <user>   **** ""
1 52
ATOM$RED        STATIC     ATOMS    COLORGROUP SYSTEM
1 52
