#       Name:                ZD6
#       Creating user name   gbret
#       Creation time:       Fri Sep  9 19:14:01 2016


#       File generated by GOLD software.
#

@<TRIPOS>MOLECULE
ZD6
    55    58     1
SMALL
NO_CHARGES


@<TRIPOS>ATOM
      1 C1          -0.6140   3.5062   1.6137 C.3            1 <1>                0.0000
      2 O2          -0.6075   2.0773   1.5970 O.3            1 <1>                0.0000
      3 C3          -0.0237   1.4749   0.5261 C.ar           1 <1>                0.0000
      4 C4           0.5323   2.2445  -0.4775 C.ar           1 <1>                0.0000
      5 C5           1.1281   1.6199  -1.5705 C.ar           1 <1>                0.0000
      6 C6           1.1627   0.2159  -1.6507 C.ar           1 <1>                0.0000
      7 C7           0.6019  -0.5457  -0.6386 C.ar           1 <1>                0.0000
      8 C8           0.0160   0.0813   0.4485 C.ar           1 <1>                0.0000
      9 O9          -0.5341  -0.6652   1.4415 O.3            1 <1>                0.0000
     10 C10         -0.4711  -2.0854   1.2965 C.3            1 <1>                0.0000
     11 C11         -1.1366  -2.7513   2.5026 C.3            1 <1>                0.0000
     12 C12         -2.6317  -2.4202   2.5100 C.3            1 <1>                0.0000
     13 C13         -3.3051  -3.1532   3.6722 C.3            1 <1>                0.0000
     14 N14         -3.1239  -4.6010   3.5130 N.4            1 <1>                0.0000
     15 H15         -3.4959  -4.8894   2.6205 H              1 <1>                0.0000
     16 C16         -3.8361  -5.3034   4.5888 C.3            1 <1>                0.0000
     17 C17         -1.6958  -4.9343   3.5769 C.3            1 <1>                0.0000
     18 C18         -0.9605  -4.2698   2.4110 C.3            1 <1>                0.0000
     19 N19          1.7654  -0.3663  -2.7549 N.pl3          1 <1>                0.0000
     20 H20          1.8004  -1.3326  -2.8312 H              1 <1>                0.0000
     21 C21          2.3055   0.4056  -3.7283 C.2            1 <1>                0.0000
     22 N22          2.2966   1.7062  -3.6962 N.2            1 <1>                0.0000
     23 C23          1.7380   2.3896  -2.6711 C.2            1 <1>                0.0000
     24 N24          1.7383   3.7117  -2.6564 N.2            1 <1>                0.0000
     25 C25          2.4040   4.4055  -3.6270 C.ar           1 <1>                0.0000
     26 C26          1.7233   4.8524  -4.7625 C.ar           1 <1>                0.0000
     27 C27          2.4013   5.5528  -5.7385 C.ar           1 <1>                0.0000
     28 C28          3.7537   5.8135  -5.5961 C.ar           1 <1>                0.0000
     29 Br29         4.6731   6.7745  -6.9404 Br             1 <1>                0.0000
     30 C30          4.4362   5.3744  -4.4742 C.ar           1 <1>                0.0000
     31 C31          3.7696   4.6771  -3.4861 C.ar           1 <1>                0.0000
     32 F32          4.4361   4.2490  -2.3917 F              1 <1>                0.0000
     33 H33          0.4118   3.8744   1.5937 H              1 <1>                0.0000
     34 H34         -1.1504   3.8774   0.7405 H              1 <1>                0.0000
     35 H35         -1.1082   3.8566   2.5198 H              1 <1>                0.0000
     36 H36          0.5049   3.3223  -0.4150 H              1 <1>                0.0000
     37 H37          0.6255  -1.6240  -0.6948 H              1 <1>                0.0000
     38 H38         -0.9912  -2.3810   0.3854 H              1 <1>                0.0000
     39 H39          0.5713  -2.3987   1.2377 H              1 <1>                0.0000
     40 H40         -0.6765  -2.3857   3.4206 H              1 <1>                0.0000
     41 H41         -2.7659  -1.3452   2.6310 H              1 <1>                0.0000
     42 H42         -3.0800  -2.7400   1.5694 H              1 <1>                0.0000
     43 H43         -2.8562  -2.8325   4.6123 H              1 <1>                0.0000
     44 H44         -4.3697  -2.9195   3.6806 H              1 <1>                0.0000
     45 H45         -4.8979  -5.0620   4.5396 H              1 <1>                0.0000
     46 H46         -3.7022  -6.3788   4.4715 H              1 <1>                0.0000
     47 H47         -3.4368  -4.9906   5.5536 H              1 <1>                0.0000
     48 H48         -1.2812  -4.5756   4.5190 H              1 <1>                0.0000
     49 H49         -1.5723  -6.0155   3.5148 H              1 <1>                0.0000
     50 H50         -1.3741  -4.6280   1.4683 H              1 <1>                0.0000
     51 H51          0.0999  -4.5169   2.4612 H              1 <1>                0.0000
     52 H52          2.7670  -0.0833  -4.5735 H              1 <1>                0.0000
     53 H53          0.6686   4.6496  -4.8760 H              1 <1>                0.0000
     54 H54          1.8759   5.8985  -6.6164 H              1 <1>                0.0000
     55 H55          5.4910   5.5813  -4.3698 H              1 <1>                0.0000
@<TRIPOS>BOND
    1    1    2 1     
    2    1   33 1     
    3    1   34 1     
    4    1   35 1     
    5    2    3 1     
    6    3    8 ar    
    7    3    4 ar    
    8    4    5 ar    
    9    4   36 1     
   10    5   23 1     
   11    5    6 ar    
   12    6    7 ar    
   13    6   19 1     
   14    7    8 ar    
   15    7   37 1     
   16    8    9 1     
   17    9   10 1     
   18   10   11 1     
   19   10   38 1     
   20   10   39 1     
   21   11   18 1     
   22   11   12 1     
   23   11   40 1     
   24   12   13 1     
   25   12   41 1     
   26   12   42 1     
   27   13   14 1     
   28   13   43 1     
   29   13   44 1     
   30   14   15 1     
   31   14   16 1     
   32   14   17 1     
   33   16   45 1     
   34   16   46 1     
   35   16   47 1     
   36   17   18 1     
   37   17   48 1     
   38   17   49 1     
   39   18   50 1     
   40   18   51 1     
   41   19   20 1     
   42   19   21 1     
   43   21   22 2     
   44   21   52 1     
   45   22   23 1     
   46   23   24 2     
   47   24   25 1     
   48   25   31 ar    
   49   25   26 ar    
   50   26   27 ar    
   51   26   53 1     
   52   27   28 ar    
   53   27   54 1     
   54   28   29 1     
   55   28   30 ar    
   56   30   31 ar    
   57   30   55 1     
   58   31   32 1     
@<TRIPOS>SUBSTRUCTURE
      1 ****           1
@<TRIPOS>SET
DONOR_HYDROGENS      STATIC     ATOMS    <user>   **** ""
2 15 20
ATOM$RED        STATIC     ATOMS    COLORGROUP SYSTEM
2 15 20
