#       Name:                ZDA
#       Creating user name   gbret
#       Creation time:       Fri Sep  9 19:14:14 2016


#       File generated by GOLD software.
#

@<TRIPOS>MOLECULE
ZDA
    41    43     1
SMALL
NO_CHARGES


@<TRIPOS>ATOM
      1 C1          -2.6339   1.6526  -0.8629 C.3            1 <1>                0.0000
      2 C2          -2.6131   0.1227  -0.8713 C.3            1 <1>                0.0000
      3 O3          -1.8978  -0.3500  -2.0250 O.3            1 <1>                0.0000
      4 C4          -0.5254  -0.5430  -1.6202 C.3            1 <1>                0.0000
      5 C5          -0.6495  -1.1569  -0.2025 C.3            1 <1>                0.0000
      6 C6          -1.8695  -0.3981   0.3739 C.3            1 <1>                0.0000
      7 O7          -1.4398   0.6918   1.1921 O.3            1 <1>                0.0000
      8 P8          -1.8440   0.8359   2.7439 P.3            1 <1>                0.0000
      9 O9          -3.3708   1.0405   2.8615 O.co2          1 <1>                0.0000
     10 O10         -1.4361  -0.4461   3.5035 O.co2          1 <1>                0.0000
     11 O11         -1.0821   2.1029   3.3815 O.3            1 <1>                0.0000
     12 P12         -0.7209   2.5501   4.8854 P.3            1 <1>                0.0000
     13 O13         -1.9943   3.0727   5.5871 O.co2          1 <1>                0.0000
     14 O14         -0.1649   1.3370   5.6640 O.co2          1 <1>                0.0000
     15 O15          0.3878   3.7169   4.8467 O.3            1 <1>                0.0000
     16 P16          1.4391   4.2967   5.9193 P.3            1 <1>                0.0000
     17 O17          2.6902   3.3560   5.9854 O.co2          1 <1>                0.0000
     18 O18          1.8884   5.7336   5.4861 O.co2          1 <1>                0.0000
     19 O19          0.7618   4.3646   7.3304 O.co2          1 <1>                0.0000
     20 N20          0.1542  -1.4716  -2.5269 N.pl3          1 <1>                0.0000
     21 C21         -0.4416  -2.4123  -3.3132 C.2            1 <1>                0.0000
     22 N22          0.4604  -3.0613  -3.9907 N.2            1 <1>                0.0000
     23 C23          1.6886  -2.5796  -3.6831 C.ar           1 <1>                0.0000
     24 C24          2.9994  -2.8825  -4.0899 C.ar           1 <1>                0.0000
     25 N25          3.2401  -3.8822  -5.0160 N.pl3          1 <1>                0.0000
     26 N26          4.0021  -2.1863  -3.5648 N.ar           1 <1>                0.0000
     27 C27          3.7816  -1.2302  -2.6807 C.ar           1 <1>                0.0000
     28 N28          2.5720  -0.9123  -2.2706 N.ar           1 <1>                0.0000
     29 C29          1.5065  -1.5500  -2.7447 C.ar           1 <1>                0.0000
     30 H30         -1.6113   2.0299  -0.8706 H              1 <1>                0.0000
     31 H31         -3.1611   2.0136  -1.7459 H              1 <1>                0.0000
     32 H32         -3.1441   2.0041   0.0339 H              1 <1>                0.0000
     33 H33         -3.6331  -0.2616  -0.8816 H              1 <1>                0.0000
     34 H34          0.0008   0.4108  -1.5808 H              1 <1>                0.0000
     35 H35         -0.8479  -2.2272  -0.2581 H              1 <1>                0.0000
     36 H36          0.2458  -0.9587   0.3869 H              1 <1>                0.0000
     37 H37         -2.5062  -1.0756   0.9429 H              1 <1>                0.0000
     38 H38         -1.5051  -2.5928  -3.3658 H              1 <1>                0.0000
     39 H39          2.4997  -4.3832  -5.3923 H              1 <1>                0.0000
     40 H40          4.1493  -4.0819  -5.2888 H              1 <1>                0.0000
     41 H41          4.6256  -0.6892  -2.2788 H              1 <1>                0.0000
@<TRIPOS>BOND
    1    1    2 1     
    2    1   30 1     
    3    1   31 1     
    4    1   32 1     
    5    2    6 1     
    6    2    3 1     
    7    2   33 1     
    8    3    4 1     
    9    4    5 1     
   10    4   20 1     
   11    4   34 1     
   12    5    6 1     
   13    5   35 1     
   14    5   36 1     
   15    6    7 1     
   16    6   37 1     
   17    7    8 1     
   18    8    9 ar    
   19    8   10 ar    
   20    8   11 1     
   21   11   12 1     
   22   12   13 ar    
   23   12   14 ar    
   24   12   15 1     
   25   15   16 1     
   26   16   17 ar    
   27   16   18 ar    
   28   16   19 ar    
   29   20   29 1     
   30   20   21 1     
   31   21   22 2     
   32   21   38 1     
   33   22   23 1     
   34   23   29 ar    
   35   23   24 ar    
   36   24   25 1     
   37   24   26 ar    
   38   25   39 1     
   39   25   40 1     
   40   26   27 ar    
   41   27   28 ar    
   42   27   41 1     
   43   28   29 ar    
@<TRIPOS>SUBSTRUCTURE
      1 ****           1
@<TRIPOS>SET
DONOR_HYDROGENS      STATIC     ATOMS    <user>   **** ""
2 39 40
ATOM$RED        STATIC     ATOMS    COLORGROUP SYSTEM
2 39 40
