#       Name:                ZS4
#       Creating user name   gbret
#       Creation time:       Fri Sep  9 19:21:10 2016


#       File generated by GOLD software.
#

@<TRIPOS>MOLECULE
ZS4
    51    55     1
SMALL
NO_CHARGES


@<TRIPOS>ATOM
      1 F1           0.0686  -4.8062  -1.6678 F              1 <1>                0.0000
      2 C2           0.0702  -3.6775  -0.8412 C.3            1 <1>                0.0000
      3 F3           1.1108  -2.8230  -1.2208 F              1 <1>                0.0000
      4 C4          -1.2461  -2.9559  -0.9738 C.2            1 <1>                0.0000
      5 N5          -2.3620  -3.5045  -1.3534 N.2            1 <1>                0.0000
      6 C6          -3.3516  -2.5736  -1.3628 C.ar           1 <1>                0.0000
      7 C7          -4.7113  -2.6185  -1.6818 C.ar           1 <1>                0.0000
      8 C8          -5.4727  -1.4757  -1.5910 C.ar           1 <1>                0.0000
      9 C9          -4.9007  -0.2783  -1.1854 C.ar           1 <1>                0.0000
     10 C10         -3.5605  -0.2169  -0.8671 C.ar           1 <1>                0.0000
     11 C11         -2.7779  -1.3590  -0.9524 C.ar           1 <1>                0.0000
     12 N12         -1.4429  -1.6315  -0.7074 N.pl3          1 <1>                0.0000
     13 C13         -0.4822  -0.7256  -0.2741 C.ar           1 <1>                0.0000
     14 N14         -0.3736   0.4592  -0.8637 N.ar           1 <1>                0.0000
     15 C15          0.5455   1.3264  -0.4497 C.ar           1 <1>                0.0000
     16 N16          1.3555   1.0071   0.5546 N.ar           1 <1>                0.0000
     17 C17          1.2462  -0.1791   1.1442 C.ar           1 <1>                0.0000
     18 N18          0.3231  -1.0433   0.7327 N.ar           1 <1>                0.0000
     19 N19          2.0872  -0.5117   2.1867 N.3            1 <1>                0.0000
     20 C20          1.8725   0.3742   3.3401 C.3            1 <1>                0.0000
     21 C21          2.8639   0.0097   4.4483 C.3            1 <1>                0.0000
     22 O22          2.7046  -1.3703   4.7885 O.3            1 <1>                0.0000
     23 C23          2.9073  -2.2615   3.6886 C.3            1 <1>                0.0000
     24 C24          1.9163  -1.9200   2.5727 C.3            1 <1>                0.0000
     25 N25          0.6585   2.5577  -1.0628 N.3            1 <1>                0.0000
     26 C26          2.0213   2.7697  -1.5717 C.3            1 <1>                0.0000
     27 C27          2.1181   4.1673  -2.1891 C.3            1 <1>                0.0000
     28 O28          1.1304   4.2991  -3.2151 O.3            1 <1>                0.0000
     29 C29         -0.2086   4.0994  -2.7543 C.3            1 <1>                0.0000
     30 C30         -0.3289   2.7011  -2.1426 C.3            1 <1>                0.0000
     31 H31          0.2127  -3.9859   0.1945 H              1 <1>                0.0000
     32 H32         -5.1631  -3.5468  -1.9988 H              1 <1>                0.0000
     33 H33         -6.5236  -1.5110  -1.8377 H              1 <1>                0.0000
     34 H34         -5.5091   0.6115  -1.1190 H              1 <1>                0.0000
     35 H35         -3.1212   0.7181  -0.5521 H              1 <1>                0.0000
     36 H36          2.0292   1.4097   3.0378 H              1 <1>                0.0000
     37 H37          0.8539   0.2520   3.7083 H              1 <1>                0.0000
     38 H38          3.8814   0.1830   4.0979 H              1 <1>                0.0000
     39 H39          2.6708   0.6257   5.3265 H              1 <1>                0.0000
     40 H40          3.9260  -2.1542   3.3161 H              1 <1>                0.0000
     41 H41          2.7455  -3.2881   4.0173 H              1 <1>                0.0000
     42 H42          0.8984  -2.0789   2.9286 H              1 <1>                0.0000
     43 H43          2.1049  -2.5592   1.7102 H              1 <1>                0.0000
     44 H44          2.7336   2.6842  -0.7511 H              1 <1>                0.0000
     45 H45          2.2474   2.0202  -2.3302 H              1 <1>                0.0000
     46 H46          1.9448   4.9184  -1.4185 H              1 <1>                0.0000
     47 H47          3.1100   4.3076  -2.6186 H              1 <1>                0.0000
     48 H48         -0.4495   4.8486  -2.0001 H              1 <1>                0.0000
     49 H49         -0.8994   4.1906  -3.5925 H              1 <1>                0.0000
     50 H50         -0.1405   1.9506  -2.9102 H              1 <1>                0.0000
     51 H51         -1.3322   2.5656  -1.7386 H              1 <1>                0.0000
@<TRIPOS>BOND
    1    1    2 1     
    2    2    3 1     
    3    2    4 1     
    4    2   31 1     
    5    4   12 1     
    6    4    5 2     
    7    5    6 1     
    8    6   11 ar    
    9    6    7 ar    
   10    7    8 ar    
   11    7   32 1     
   12    8    9 ar    
   13    8   33 1     
   14    9   10 ar    
   15    9   34 1     
   16   10   11 ar    
   17   10   35 1     
   18   11   12 1     
   19   12   13 1     
   20   13   18 ar    
   21   13   14 ar    
   22   14   15 ar    
   23   15   16 ar    
   24   15   25 1     
   25   16   17 ar    
   26   17   18 ar    
   27   17   19 1     
   28   19   24 1     
   29   19   20 1     
   30   20   21 1     
   31   20   36 1     
   32   20   37 1     
   33   21   22 1     
   34   21   38 1     
   35   21   39 1     
   36   22   23 1     
   37   23   24 1     
   38   23   40 1     
   39   23   41 1     
   40   24   42 1     
   41   24   43 1     
   42   25   30 1     
   43   25   26 1     
   44   26   27 1     
   45   26   44 1     
   46   26   45 1     
   47   27   28 1     
   48   27   46 1     
   49   27   47 1     
   50   28   29 1     
   51   29   30 1     
   52   29   48 1     
   53   29   49 1     
   54   30   50 1     
   55   30   51 1     
@<TRIPOS>SUBSTRUCTURE
      1 ****           1
