#       Name:                ZY4
#       Creating user name   gbret
#       Creation time:       Fri Sep  9 19:24:46 2016


#       File generated by GOLD software.
#

@<TRIPOS>MOLECULE
ZY4
    79    83     1
SMALL
NO_CHARGES


@<TRIPOS>ATOM
      1 C1          -5.2777   1.8338  -0.9978 C.3            1 <1>                0.0000
      2 C2          -5.2569   0.3039  -1.0062 C.3            1 <1>                0.0000
      3 N3          -4.5712  -0.1685  -2.2115 N.pl3          1 <1>                0.0000
      4 C4          -5.1911  -0.5199  -3.3842 C.2            1 <1>                0.0000
      5 C5          -4.2668  -0.8743  -4.3007 C.2            1 <1>                0.0000
      6 C6          -4.5653  -1.4812  -5.6585 C.3            1 <1>                0.0000
      7 C7          -3.6868  -2.7332  -5.8483 C.3            1 <1>                0.0000
      8 S8          -1.9933  -2.2974  -6.2962 S.o2           1 <1>                0.0000
      9 O9          -1.0897  -3.2321  -5.7225 O.2            1 <1>                0.0000
     10 O10         -1.9263  -1.9971  -7.6835 O.2            1 <1>                0.0000
     11 N11         -1.5754  -0.8886  -5.5897 N.pl3          1 <1>                0.0000
     12 C12         -1.0911   0.2186  -6.4178 C.3            1 <1>                0.0000
     13 C13         -1.6730  -0.7219  -4.2059 C.ar           1 <1>                0.0000
     14 C14         -0.6050  -0.6116  -3.3581 C.ar           1 <1>                0.0000
     15 C15         -0.8246  -0.3684  -1.9910 C.ar           1 <1>                0.0000
     16 C16         -2.1161  -0.2108  -1.4892 C.ar           1 <1>                0.0000
     17 C17         -3.2072  -0.3205  -2.3380 C.ar           1 <1>                0.0000
     18 C18         -2.9860  -0.6724  -3.6751 C.ar           1 <1>                0.0000
     19 C19          0.3282  -0.2792  -1.0735 C.2            1 <1>                0.0000
     20 O20          1.4580  -0.4157  -1.5018 O.2            1 <1>                0.0000
     21 N21          0.1286  -0.0464   0.2389 N.am           1 <1>                0.0000
     22 C22          1.2728   0.0421   1.1494 C.3            1 <1>                0.0000
     23 C23          1.8298   1.4671   1.1315 C.3            1 <1>                0.0000
     24 C24          2.3841   1.7725  -0.2362 C.ar           1 <1>                0.0000
     25 C25          3.7070   1.4934  -0.5240 C.ar           1 <1>                0.0000
     26 C26          4.2155   1.7736  -1.7785 C.ar           1 <1>                0.0000
     27 C27          3.4008   2.3325  -2.7454 C.ar           1 <1>                0.0000
     28 C28          2.0777   2.6108  -2.4579 C.ar           1 <1>                0.0000
     29 C29          1.5681   2.3267  -1.2047 C.ar           1 <1>                0.0000
     30 C30          0.8239  -0.3121   2.5685 C.3            1 <1>                0.0000
     31 O31         -0.1056   0.6689   3.0329 O.3            1 <1>                0.0000
     32 O32          0.1979  -1.5967   2.5634 O.3            1 <1>                0.0000
     33 C33          2.0405  -0.3413   3.4959 C.3            1 <1>                0.0000
     34 N34          1.6095  -0.6814   4.8585 N.4            1 <1>                0.0000
     35 H35          0.9532   0.0112   5.1864 H              1 <1>                0.0000
     36 H36          1.1674  -1.5885   4.8548 H              1 <1>                0.0000
     37 C37          2.7775  -0.7095   5.7489 C.3            1 <1>                0.0000
     38 C38          3.3695   0.6987   5.8620 C.3            1 <1>                0.0000
     39 C39          4.5368   0.6750   6.8523 C.3            1 <1>                0.0000
     40 O40          4.0770   0.1945   8.1171 O.3            1 <1>                0.0000
     41 C41          3.5562  -1.1358   8.0816 C.3            1 <1>                0.0000
     42 C42          2.3495  -1.1849   7.1407 C.3            1 <1>                0.0000
     43 H43         -4.2551   2.2111  -1.0055 H              1 <1>                0.0000
     44 H44         -5.8049   2.1948  -1.8808 H              1 <1>                0.0000
     45 H45         -5.7879   2.1853  -0.1010 H              1 <1>                0.0000
     46 H46         -4.7297  -0.0571  -0.1231 H              1 <1>                0.0000
     47 H47         -6.2795  -0.0734  -0.9984 H              1 <1>                0.0000
     48 H48         -6.2585  -0.5136  -3.5487 H              1 <1>                0.0000
     49 H49         -5.6173  -1.7620  -5.7097 H              1 <1>                0.0000
     50 H50         -4.3407  -0.7556  -6.4402 H              1 <1>                0.0000
     51 H51         -3.6735  -3.3025  -4.9188 H              1 <1>                0.0000
     52 H52         -4.1152  -3.3520  -6.6367 H              1 <1>                0.0000
     53 H53         -1.0813  -0.0874  -7.4639 H              1 <1>                0.0000
     54 H54         -1.7504   1.0782  -6.2969 H              1 <1>                0.0000
     55 H55         -0.0814   0.4888  -6.1088 H              1 <1>                0.0000
     56 H56          0.4014  -0.7111  -3.7370 H              1 <1>                0.0000
     57 H57         -2.2660   0.0006  -0.4407 H              1 <1>                0.0000
     58 H58         -0.7727   0.0625   0.5805 H              1 <1>                0.0000
     59 H59          2.0472  -0.6547   0.8287 H              1 <1>                0.0000
     60 H60          1.0322   2.1719   1.3660 H              1 <1>                0.0000
     61 H61          2.6234   1.5563   1.8733 H              1 <1>                0.0000
     62 H62          4.3435   1.0567   0.2314 H              1 <1>                0.0000
     63 H63          5.2492   1.5561  -2.0032 H              1 <1>                0.0000
     64 H64          3.7982   2.5521  -3.7254 H              1 <1>                0.0000
     65 H65          1.4413   3.0478  -3.2132 H              1 <1>                0.0000
     66 H66          0.5344   2.5441  -0.9801 H              1 <1>                0.0000
     67 H67          0.2522   1.5668   3.0626 H              1 <1>                0.0000
     68 H68          0.7719  -2.3127   2.2586 H              1 <1>                0.0000
     69 H69          2.7495  -1.0896   3.1417 H              1 <1>                0.0000
     70 H70          2.5180   0.6385   3.4998 H              1 <1>                0.0000
     71 H71          3.5272  -1.3903   5.3456 H              1 <1>                0.0000
     72 H72          3.7274   1.0230   4.8849 H              1 <1>                0.0000
     73 H73          2.6039   1.3882   6.2178 H              1 <1>                0.0000
     74 H74          5.3195   0.0164   6.4759 H              1 <1>                0.0000
     75 H75          4.9348   1.6830   6.9693 H              1 <1>                0.0000
     76 H76          4.3261  -1.8181   7.7213 H              1 <1>                0.0000
     77 H77          3.2477  -1.4323   9.0841 H              1 <1>                0.0000
     78 H78          1.5633  -0.5335   7.5223 H              1 <1>                0.0000
     79 H79          1.9779  -2.2077   7.0780 H              1 <1>                0.0000
@<TRIPOS>BOND
    1    1    2 1     
    2    1   43 1     
    3    1   44 1     
    4    1   45 1     
    5    2    3 1     
    6    2   46 1     
    7    2   47 1     
    8    3   17 1     
    9    3    4 1     
   10    4    5 2     
   11    4   48 1     
   12    5   18 1     
   13    5    6 1     
   14    6    7 1     
   15    6   49 1     
   16    6   50 1     
   17    7    8 1     
   18    7   51 1     
   19    7   52 1     
   20    8    9 2     
   21    8   10 2     
   22    8   11 1     
   23   11   12 1     
   24   11   13 1     
   25   12   53 1     
   26   12   54 1     
   27   12   55 1     
   28   13   18 ar    
   29   13   14 ar    
   30   14   15 ar    
   31   14   56 1     
   32   15   16 ar    
   33   15   19 1     
   34   16   17 ar    
   35   16   57 1     
   36   17   18 ar    
   37   19   20 2     
   38   19   21 am    
   39   21   22 1     
   40   21   58 1     
   41   22   23 1     
   42   22   30 1     
   43   22   59 1     
   44   23   24 1     
   45   23   60 1     
   46   23   61 1     
   47   24   29 ar    
   48   24   25 ar    
   49   25   26 ar    
   50   25   62 1     
   51   26   27 ar    
   52   26   63 1     
   53   27   28 ar    
   54   27   64 1     
   55   28   29 ar    
   56   28   65 1     
   57   29   66 1     
   58   30   31 1     
   59   30   32 1     
   60   30   33 1     
   61   31   67 1     
   62   32   68 1     
   63   33   34 1     
   64   33   69 1     
   65   33   70 1     
   66   34   35 1     
   67   34   36 1     
   68   34   37 1     
   69   37   42 1     
   70   37   38 1     
   71   37   71 1     
   72   38   39 1     
   73   38   72 1     
   74   38   73 1     
   75   39   40 1     
   76   39   74 1     
   77   39   75 1     
   78   40   41 1     
   79   41   42 1     
   80   41   76 1     
   81   41   77 1     
   82   42   78 1     
   83   42   79 1     
@<TRIPOS>SUBSTRUCTURE
      1 ****           1
@<TRIPOS>SET
DONOR_HYDROGENS      STATIC     ATOMS    <user>   **** ""
5 58 67 68 35 36
ATOM$RED        STATIC     ATOMS    COLORGROUP SYSTEM
5 58 67 68 35 36
