#       Name:                ZZR
#       Creating user name   gbret
#       Creation time:       Fri Sep  9 19:28:36 2016


#       File generated by GOLD software.
#

@<TRIPOS>MOLECULE
ZZR
    16    17     1
SMALL
NO_CHARGES


@<TRIPOS>ATOM
      1 N1          -0.5235   3.0963   0.0216 N.pl3          1 <1>                0.0000
      2 C2          -0.5047   1.7155   0.0140 C.2            1 <1>                0.0000
      3 N3          -1.5585   0.9306   0.0141 N.2            1 <1>                0.0000
      4 C4          -1.1678  -0.3537   0.0047 C.ar           1 <1>                0.0000
      5 N5          -1.6221  -1.6470  -0.0009 N.pl3          1 <1>                0.0000
      6 H6          -2.5472  -1.9387   0.0012 H              1 <1>                0.0000
      7 N7          -0.4813  -2.4651  -0.0110 N.2            1 <1>                0.0000
      8 C8           0.5631  -1.6763  -0.0110 C.2            1 <1>                0.0000
      9 N9           1.8949  -2.1003  -0.0196 N.pl3          1 <1>                0.0000
     10 N10          0.1570  -0.3974  -0.0016 N.pl3          1 <1>                0.0000
     11 N11          0.6067   0.9336  -0.0008 N.pl3          1 <1>                0.0000
     12 H12          1.5287   1.2350  -0.0102 H              1 <1>                0.0000
     13 H13          0.3099   3.5927   0.0163 H              1 <1>                0.0000
     14 H14         -1.3700   3.5699   0.0282 H              1 <1>                0.0000
     15 H15          2.1022  -3.0479  -0.0262 H              1 <1>                0.0000
     16 H16          2.6119  -1.4470  -0.0189 H              1 <1>                0.0000
@<TRIPOS>BOND
    1    1    2 1     
    2    1   13 1     
    3    1   14 1     
    4    2   11 1     
    5    2    3 2     
    6    3    4 1     
    7    4   10 ar    
    8    4    5 ar    
    9    5    6 1     
   10    5    7 1     
   11    7    8 2     
   12    8    9 1     
   13    8   10 1     
   14    9   15 1     
   15    9   16 1     
   16   10   11 1     
   17   11   12 1     
@<TRIPOS>SUBSTRUCTURE
      1 ****           1
@<TRIPOS>SET
DONOR_HYDROGENS      STATIC     ATOMS    <user>   **** ""
6 13 14 6 15 16 12
ATOM$RED        STATIC     ATOMS    COLORGROUP SYSTEM
6 13 14 6 15 16 12
